1
    SWAT Jun 11 2014    VER 2012/Rev 627                                                                 0/ 0/   0      0: 0: 0

    General Input/Output section (file.cio):                                        
    11/14/2011 12:00:00 AM ARCGIS-SWAT interface AV                                 
                                                                                    


       SUB      GIS  MON   AREAkm2  PRECIPmm SNOMELTmm     PETmm      ETmm      SWmm    PERCmm    SURQmm    GW_Qmm    WYLDmm  SYLDt/ha ORGNkg/ha ORGPkg/haNSURQkg/ha SOLPkg/ha SEDPkg/ha LAT Q(mm)LATNO3kg/hGWNO3kg/haCHOLAmic/LCBODU mg/L DOXQ mg/L TNO3kg/ha
BIGSUB   1        0    1.12360E+04    51.400    11.225    15.052     7.463    66.233     0.000     0.000     0.000     0.067     0.000     0.000     0.000     0.000     0.000     0.000     0.067     0.001     0.000 .00000E+00 0.000E+00 0.000E+00 0.000E+00     1
BIGSUB   2        0    1.37400E+03    51.400    11.225    15.113     7.551    65.584     0.000     0.000     0.000     0.399     0.000     0.000     0.000     0.000     0.000     0.000     0.399     0.005     0.000 .00000E+00 0.000E+00 0.000E+00 0.000E+00     2
BIGSUB   3        0    1.14590E+04    51.400    11.225    15.050     7.511    67.056     0.000     0.000     0.000     0.084     0.000     0.000     0.000     0.000     0.000     0.000     0.083     0.001     0.000 .00000E+00 0.000E+00 0.000E+00 0.000E+00     3
BIGSUB   4        0    1.91800E+03    51.400    11.225    15.061     7.487    66.575     0.000     0.000     0.000     0.065     0.000     0.000     0.000     0.000     0.000     0.000     0.065     0.001     0.000 .00000E+00 0.000E+00 0.000E+00 0.000E+00     4
BIGSUB   5        0    1.37770E+04    51.400    11.225    15.160     7.645    66.909     0.000     0.000     0.000     0.055     0.000     0.000     0.000     0.000     0.000     0.000     0.055     0.001     0.000 .00000E+00 0.000E+00 0.000E+00 0.000E+00     5
BIGSUB   6        0    1.18250E+04    51.400    11.225    15.279     7.773    66.355     0.000     0.000     0.000     0.062     0.000     0.000     0.000     0.000     0.000     0.000     0.062     0.001     0.000 .00000E+00 0.000E+00 0.000E+00 0.000E+00     6
BIGSUB   7        0    1.14660E+04    51.400    11.225    15.290     7.606    64.580     0.000     0.000     0.002     0.013     0.000     0.000     0.000     0.000     0.000     0.000     0.012     0.000     0.000 .00000E+00 0.000E+00 0.000E+00 0.000E+00     7
BIGSUB   8        0    1.34940E+04    51.400    11.225    15.520     7.684    64.314     0.000     0.000     0.001     0.076     0.000     0.000     0.000     0.000     0.000     0.000     0.075     0.001     0.000 .00000E+00 0.000E+00 0.000E+00 0.000E+00     8
BIGSUB   9        0    1.47420E+04    26.400    12.813    16.126     5.359    26.187     0.000     0.000     0.000     0.012     0.000     0.000     0.000     0.000     0.000     0.000     0.012     0.000     0.000 .00000E+00 0.000E+00 0.000E+00 0.000E+00     9
BIGSUB  10        0    1.13380E+04    26.400    12.807    16.283     6.862    23.440     0.000     0.000     0.000     0.012     0.000     0.000     0.000     0.000     0.000     0.000     0.012     0.000     0.000 .00000E+00 0.000E+00 0.000E+00 0.000E+00    10
BIGSUB  11        0    1.24060E+04    38.272    37.456    20.882     9.477    54.777     0.000     0.000     0.008     0.032     0.000     0.000     0.000     0.000     0.000     0.000     0.023     0.000     0.000 .00000E+00 0.000E+00 0.000E+00 0.000E+00    11
BIGSUB  12        0    1.19770E+04    46.500     4.125    14.944     7.079    54.892     0.000     0.000     0.003     0.017     0.000     0.000     0.000     0.000     0.000     0.000     0.014     0.000     0.000 .00000E+00 0.000E+00 0.000E+00 0.000E+00    12
BIGSUB  13        0    1.16410E+04    38.272    37.453    21.038    10.904    52.739     0.000     0.000     0.017     0.034     0.000     0.000     0.000     0.000     0.000     0.000     0.017     0.000     0.000 .00000E+00 0.000E+00 0.000E+00 0.000E+00    13
BIGSUB  14        0    1.52740E+04    46.500     4.125    15.141     7.032    53.426     0.000     0.000     0.004     0.031     0.000     0.000     0.000     0.000     0.000     0.000     0.027     0.000     0.000 .00000E+00 0.000E+00 0.000E+00 0.000E+00    14
BIGSUB  15        0    1.42200E+03    38.272    37.451    21.185    10.415    53.453     0.000     0.000     0.009     0.024     0.000     0.000     0.000     0.000     0.000     0.000     0.015     0.000     0.000 .00000E+00 0.000E+00 0.000E+00 0.000E+00    15
BIGSUB  16        0    1.13850E+04    38.272    37.448    21.310     8.514    55.885     0.000     0.000     0.000     0.015     0.000     0.000     0.000     0.000     0.000     0.000     0.015     0.000     0.000 .00000E+00 0.000E+00 0.000E+00 0.000E+00    16
BIGSUB  17        0    1.17180E+04    46.500     4.125    15.342     7.011    49.967     0.000     0.000     0.000     0.011     0.000     0.000     0.000     0.000     0.000     0.000     0.011     0.000     0.000 .00000E+00 0.000E+00 0.000E+00 0.000E+00    17
BIGSUB  18        0    1.26090E+04    46.500     4.125    15.277     7.105    54.216     0.000     0.000     0.003     0.023     0.000     0.000     0.000     0.000     0.000     0.000     0.020     0.000     0.000 .00000E+00 0.000E+00 0.000E+00 0.000E+00    18
BIGSUB  19        0    1.25380E+04    46.500     4.125    15.474     7.099    52.736     0.000     0.000     0.000     0.039     0.000     0.000     0.000     0.000     0.000     0.000     0.039     0.001     0.000 .00000E+00 0.000E+00 0.000E+00 0.000E+00    19
BIGSUB  20        0    1.19820E+04    46.500     4.125    15.535     7.061    52.265     0.000     0.000     0.001     0.050     0.000     0.000     0.000     0.000     0.000     0.000     0.049     0.001     0.000 .00000E+00 0.000E+00 0.000E+00 0.000E+00    20
BIGSUB   1        0    2.12360E+04    40.600    43.800    25.836    17.727   101.214     0.000     0.000     0.000     0.050     0.000     0.000     0.000     0.000     0.000     0.000     0.050     0.001     0.000 .00000E+00 0.000E+00 0.000E+00 0.000E+00     1
BIGSUB   2        0    2.37400E+03    40.600    43.798    25.908    17.735   100.289     0.000     0.000     0.000     0.246     0.000     0.000     0.000     0.000     0.000     0.000     0.246     0.005     0.000 .00000E+00 0.000E+00 0.000E+00 0.000E+00     2
BIGSUB   3        0    2.14590E+04    40.600    43.800    25.835    17.049   102.701     0.000     0.000     0.000     0.065     0.000     0.000     0.000     0.000     0.000     0.000     0.065     0.001     0.000 .00000E+00 0.000E+00 0.000E+00 0.000E+00     3
BIGSUB   4        0    2.91800E+03    40.600    43.800    25.847    17.463   101.822     0.000     0.000     0.000     0.049     0.000     0.000     0.000     0.000     0.000     0.000     0.049     0.001     0.000 .00000E+00 0.000E+00 0.000E+00 0.000E+00     4
BIGSUB   5        0    2.37770E+04    40.600    43.795    25.964    17.434   102.187     0.000     0.000     0.000     0.043     0.000     0.000     0.000     0.000     0.000     0.000     0.043     0.001     0.000 .00000E+00 0.000E+00 0.000E+00 0.000E+00     5
BIGSUB   6        0    2.18250E+04    40.600    43.790    26.104    16.991   102.056     0.000     0.000     0.000     0.053     0.000     0.000     0.000     0.000     0.000     0.000     0.052     0.001     0.000 .00000E+00 0.000E+00 0.000E+00 0.000E+00     6
BIGSUB   7        0    2.14660E+04    40.600    43.789    26.117    17.412    94.839     5.081     0.000     0.904     0.914     0.000     0.000     0.000     0.000     0.000     0.000     0.010     0.000     0.060 .00000E+00 0.000E+00 0.000E+00 0.000E+00     7
BIGSUB   8        0    2.34940E+04    40.600    43.779    26.378    18.001    96.123     2.871     0.000     0.172     0.228     0.000     0.000     0.000     0.000     0.000     0.000     0.056     0.001     0.000 .00000E+00 0.000E+00 0.000E+00 0.000E+00     8
BIGSUB   9        0    2.47420E+04    35.500    36.773    23.388    11.688    61.726     0.000     0.000     0.000     0.015     0.000     0.000     0.000     0.000     0.000     0.000     0.015     0.001     0.000 .00000E+00 0.000E+00 0.000E+00 0.000E+00     9
BIGSUB  10        0    2.13380E+04    35.500    36.769    23.547    11.729    58.931     0.000     0.000     0.000     0.011     0.000     0.000     0.000     0.000     0.000     0.000     0.011     0.000     0.000 .00000E+00 0.000E+00 0.000E+00 0.000E+00    10
BIGSUB  11        0    2.24060E+04    26.224     9.666    21.797    12.675    52.606     0.000     0.000     0.003     0.021     0.000     0.000     0.000     0.000     0.000     0.000     0.019     0.000     0.000 .00000E+00 0.000E+00 0.000E+00 0.000E+00    11
BIGSUB  12        0    2.19770E+04    44.900    32.625    19.464     8.197    81.143     0.000     0.000     0.001     0.012     0.000     0.000     0.000     0.000     0.000     0.000     0.011     0.000     0.000 .00000E+00 0.000E+00 0.000E+00 0.000E+00    12
BIGSUB  13        0    2.16410E+04    26.224     9.666    21.916    13.383    49.859     0.000     0.000     0.006     0.021     0.000     0.000     0.000     0.000     0.000     0.000     0.015     0.000     0.000 .00000E+00 0.000E+00 0.000E+00 0.000E+00    13
BIGSUB  14        0    2.52740E+04    44.900    32.625    19.642     8.140    79.723     0.000     0.000     0.001     0.024     0.000     0.000     0.000     0.000     0.000     0.000     0.022     0.000     0.000 .00000E+00 0.000E+00 0.000E+00 0.000E+00    14
BIGSUB  15        0    2.42200E+03    26.224     9.666    22.027    13.160    50.797     0.000     0.000     0.003     0.015     0.000     0.000     0.000     0.000     0.000     0.000     0.012     0.000     0.000 .00000E+00 0.000E+00 0.000E+00 0.000E+00    15
BIGSUB  16        0    2.13850E+04    26.224     9.666    22.122    12.188    54.200     0.000     0.000     0.000     0.012     0.000     0.000     0.000     0.000     0.000     0.000     0.012     0.000     0.000 .00000E+00 0.000E+00 0.000E+00 0.000E+00    16
BIGSUB  17        0    2.17180E+04    44.900    32.625    19.824     8.276    76.157     0.000     0.000     0.000     0.010     0.000     0.000     0.000     0.000     0.000     0.000     0.010     0.000     0.000 .00000E+00 0.000E+00 0.000E+00 0.000E+00    17
BIGSUB  18        0    2.26090E+04    44.900    32.625    19.765     7.877    80.789     0.000     0.000     0.001     0.017     0.000     0.000     0.000     0.000     0.000     0.000     0.016     0.000     0.000 .00000E+00 0.000E+00 0.000E+00 0.000E+00    18
BIGSUB  19        0    2.25380E+04    44.900    32.625    19.942     8.218    78.967     0.000     0.000     0.000     0.026     0.000     0.000     0.000     0.000     0.000     0.000     0.026     0.001     0.000 .00000E+00 0.000E+00 0.000E+00 0.000E+00    19
BIGSUB  20        0    2.19820E+04    44.900    32.625    19.997     8.282    78.438     0.000     0.000     0.000     0.033     0.000     0.000     0.000     0.000     0.000     0.000     0.033     0.001     0.000 .00000E+00 0.000E+00 0.000E+00 0.000E+00    20
BIGSUB   1        0    3.12360E+04    40.400     3.000    69.276    39.617   101.923     0.000     0.000     0.000     0.068     0.000     0.000     0.000     0.000     0.000     0.000     0.068     0.001     0.000 .00000E+00 0.000E+00 0.000E+00 0.000E+00     1
BIGSUB   2        0    3.37400E+03    40.400     3.000    69.392    39.733   100.618     0.000     0.000     0.000     0.354     0.000     0.000     0.000     0.000     0.000     0.000     0.354     0.005     0.000 .00000E+00 0.000E+00 0.000E+00 0.000E+00     2
BIGSUB   3        0    3.14590E+04    40.400     3.000    69.274    39.940   103.054     0.000     0.000     0.000     0.086     0.000     0.000     0.000     0.000     0.000     0.000     0.085     0.001     0.000 .00000E+00 0.000E+00 0.000E+00 0.000E+00     3
BIGSUB   4        0    3.91800E+03    40.400     3.000    69.294    39.753   102.396     0.000     0.000     0.000     0.067     0.000     0.000     0.000     0.000     0.000     0.000     0.066     0.001     0.000 .00000E+00 0.000E+00 0.000E+00 0.000E+00     4
BIGSUB   5        0    3.37770E+04    40.400     3.000    69.482    40.168   102.351     0.000     0.000     0.000     0.058     0.000     0.000     0.000     0.000     0.000     0.000     0.058     0.001     0.000 .00000E+00 0.000E+00 0.000E+00 0.000E+00     5
BIGSUB   6        0    3.18250E+04    40.400     3.000    69.706    40.435   101.928     0.000     0.000     0.000     0.070     0.000     0.000     0.000     0.000     0.000     0.000     0.070     0.001     0.000 .00000E+00 0.000E+00 0.000E+00 0.000E+00     6
BIGSUB   7        0    3.14660E+04    40.400     3.000    69.727    39.091    88.797     7.330     0.000     4.049     4.061     0.000     0.000     0.000     0.000     0.000     0.000     0.013     0.000     0.366 .00000E+00 0.000E+00 0.000E+00 0.000E+00     7
BIGSUB   8        0    3.34940E+04    40.400     3.000    70.158    39.216    92.513     4.704     0.000     1.153     1.233     0.000     0.000     0.000     0.000     0.000     0.000     0.080     0.001     0.000 .00000E+00 0.000E+00 0.000E+00 0.000E+00     8
BIGSUB   9        0    3.47420E+04    44.100     0.500    61.109    30.958    74.778     0.000     0.000     0.000     0.046     0.000     0.000     0.000     0.000     0.000     0.000     0.045     0.001     0.000 .00000E+00 0.000E+00 0.000E+00 0.000E+00     9
BIGSUB  10        0    3.13380E+04    44.100     0.500    61.359    29.362    73.605     0.000     0.000     0.000     0.019     0.000     0.000     0.000     0.000     0.000     0.000     0.019     0.001     0.000 .00000E+00 0.000E+00 0.000E+00 0.000E+00    10
BIGSUB  11        0    3.24060E+04     1.524    15.721    54.749    24.503    45.339     0.000     0.000     0.001     0.020     0.000     0.000     0.000     0.000     0.000     0.000     0.019     0.000     0.000 .00000E+00 0.000E+00 0.000E+00 0.000E+00    11
BIGSUB  12        0    3.19770E+04    82.900    67.538    49.658    40.506   169.581     0.000     0.000     0.000     0.018     0.000     0.000     0.000     0.000     0.000     0.000     0.017     0.000     0.000 .00000E+00 0.000E+00 0.000E+00 0.000E+00    12
BIGSUB  13        0    3.16410E+04     1.524    15.721    54.925    23.742    43.357     0.000     0.000     0.003     0.018     0.000     0.000     0.000     0.000     0.000     0.000     0.016     0.000     0.000 .00000E+00 0.000E+00 0.000E+00 0.000E+00    13
BIGSUB  14        0    3.52740E+04    82.900    67.513    49.929    40.468   146.321    21.762     0.000     3.519     3.562     0.000     0.000     0.000     0.000     0.000     0.000     0.043     0.001     0.348 .00000E+00 0.000E+00 0.000E+00 0.000E+00    14
BIGSUB  15        0    3.42200E+03     1.524    15.721    55.089    24.104    43.932     0.000     0.000     0.001     0.014     0.000     0.000     0.000     0.000     0.000     0.000     0.013     0.000     0.000 .00000E+00 0.000E+00 0.000E+00 0.000E+00    15
BIGSUB  16        0    3.13850E+04     1.524    15.721    55.229    25.340    46.100     0.000     0.000     0.000     0.012     0.000     0.000     0.000     0.000     0.000     0.000     0.012     0.000     0.000 .00000E+00 0.000E+00 0.000E+00 0.000E+00    16
BIGSUB  17        0    3.17180E+04    82.900    67.487    50.204    40.710    96.882    67.477     0.000     0.000     0.015     0.000     0.000     0.000     0.000     0.000     0.000     0.015     0.000     0.000 .00000E+00 0.000E+00 0.000E+00 0.000E+00    17
BIGSUB  18        0    3.26090E+04    82.900    67.495    50.115    40.031   169.668     0.000     0.000     0.000     0.026     0.000     0.000     0.000     0.000     0.000     0.000     0.025     0.001     0.000 .00000E+00 0.000E+00 0.000E+00 0.000E+00    18
BIGSUB  19        0    3.25380E+04    82.900    67.470    50.383    40.666   143.674    23.344     0.000     0.000     0.117     0.000     0.000     0.000     0.000     0.000     0.000     0.117     0.002     0.000 .00000E+00 0.000E+00 0.000E+00 0.000E+00    19
BIGSUB  20        0    3.19820E+04    82.900    67.462    50.466    40.652   134.927    31.525     0.000     0.000     0.142     0.000     0.000     0.000     0.000     0.000     0.000     0.142     0.003     0.000 .00000E+00 0.000E+00 0.000E+00 0.000E+00    20
BIGSUB   1        0    4.12360E+04    69.300     3.800   105.468    52.117   112.513     6.432     0.000     0.000     0.102     0.000     0.000     0.000     0.000     0.000     0.000     0.102     0.002     0.000 .00000E+00 0.000E+00 0.000E+00 0.000E+00     1
BIGSUB   2        0    4.37400E+03    69.300     3.800   105.546    52.181   113.044     3.970     0.000     2.141     2.722     0.000     0.000     0.000     0.000     0.000     0.000     0.582     0.008     0.068 .00000E+00 0.000E+00 0.000E+00 0.000E+00     2
BIGSUB   3        0    4.14590E+04    69.300     3.800   105.466    52.490   116.344     3.294     0.000     1.725     1.846     0.000     0.000     0.000     0.000     0.000     0.000     0.121     0.002     0.079 .00000E+00 0.000E+00 0.000E+00 0.000E+00     3
BIGSUB   4        0    4.91800E+03    69.300     3.800   105.480    52.275   114.094     5.169     0.000     0.000     0.098     0.000     0.000     0.000     0.000     0.000     0.000     0.098     0.002     0.000 .00000E+00 0.000E+00 0.000E+00 0.000E+00     4
BIGSUB   5        0    4.37770E+04    69.300     3.800   105.607    52.496   115.774     3.235     0.000     1.602     1.685     0.000     0.000     0.000     0.000     0.000     0.000     0.082     0.001     0.116 .00000E+00 0.000E+00 0.000E+00 0.000E+00     5
BIGSUB   6        0    4.18250E+04    69.300     3.800   105.759    52.826   117.422     0.787     0.000     0.407     0.500     0.000     0.000     0.000     0.000     0.000     0.000     0.093     0.001     0.000 .00000E+00 0.000E+00 0.000E+00 0.000E+00     6
BIGSUB   7        0    4.14660E+04    69.300     3.800   105.773    50.953    89.935    17.167     0.000     4.320     4.335     0.000     0.000     0.000     0.000     0.000     0.000     0.015     0.000     0.583 .00000E+00 0.000E+00 0.000E+00 0.000E+00     7
BIGSUB   8        0    4.34940E+04    69.300     3.800   106.061    51.218    96.314    14.085     0.000     4.228     4.343     0.000     0.000     0.000     0.000     0.000     0.000     0.115     0.002     0.204 .00000E+00 0.000E+00 0.000E+00 0.000E+00     8
BIGSUB   9        0    4.47420E+04    55.600     0.000    96.776    38.207    92.081     0.000     0.000     0.000     0.055     0.000     0.000     0.000     0.000     0.000     0.000     0.055     0.001     0.000 .00000E+00 0.000E+00 0.000E+00 0.000E+00     9
BIGSUB  10        0    4.13380E+04    55.600     0.000    96.948    35.735    93.404     0.000     0.000     0.000     0.023     0.000     0.000     0.000     0.000     0.000     0.000     0.023     0.001     0.000 .00000E+00 0.000E+00 0.000E+00 0.000E+00    10
BIGSUB  11        0    4.24060E+04    57.529     0.000    88.662    37.128    65.679     0.000     0.000     0.000     0.022     0.000     0.000     0.000     0.000     0.000     0.000     0.021     0.000     0.000 .00000E+00 0.000E+00 0.000E+00 0.000E+00    11
BIGSUB  12        0    4.19770E+04    64.700     0.000    85.056    43.206   175.135    15.876     0.000     3.524     3.547     0.000     0.000     0.000     0.000     0.000     0.000     0.023     0.000     0.410 .00000E+00 0.000E+00 0.000E+00 0.000E+00    12
BIGSUB  13        0    4.16410E+04    57.529     0.000    88.783    34.562    66.295     0.000     0.000     0.001     0.016     0.000     0.000     0.000     0.000     0.000     0.000     0.015     0.000     0.000 .00000E+00 0.000E+00 0.000E+00 0.000E+00    13
BIGSUB  14        0    4.52740E+04    64.700     0.000    85.253    41.397   149.583    19.909     0.000     7.946     8.007     0.000     0.000     0.000     0.000     0.000     0.000     0.060     0.001     0.827 .00000E+00 0.000E+00 0.000E+00 0.000E+00    14
BIGSUB  15        0    4.42200E+03    57.529     0.000    88.895    35.602    65.825     0.000     0.000     0.000     0.014     0.000     0.000     0.000     0.000     0.000     0.000     0.014     0.000     0.000 .00000E+00 0.000E+00 0.000E+00 0.000E+00    15
BIGSUB  16        0    4.13850E+04    57.529     0.000    88.991    39.325    64.263     0.000     0.000     0.000     0.014     0.000     0.000     0.000     0.000     0.000     0.000     0.014     0.000     0.000 .00000E+00 0.000E+00 0.000E+00 0.000E+00    16
BIGSUB  17        0    4.17180E+04    64.700     0.000    85.453    37.784    99.725    24.031     0.000     0.000     0.018     0.000     0.000     0.000     0.000     0.000     0.000     0.018     0.000     0.000 .00000E+00 0.000E+00 0.000E+00 0.000E+00    17
BIGSUB  18        0    4.26090E+04    64.700     0.000    85.389    43.243   174.422    16.604     0.000     7.759     7.793     0.000     0.000     0.000     0.000     0.000     0.000     0.035     0.001     0.291 .00000E+00 0.000E+00 0.000E+00 0.000E+00    18
BIGSUB  19        0    4.25380E+04    64.700     0.000    85.581    41.175   146.831    20.195     0.000     0.000     0.147     0.000     0.000     0.000     0.000     0.000     0.000     0.147     0.003     0.000 .00000E+00 0.000E+00 0.000E+00 0.000E+00    19
BIGSUB  20        0    4.19820E+04    64.700     0.000    85.641    40.438   137.079    21.885     0.000     2.121     2.299     0.000     0.000     0.000     0.000     0.000     0.000     0.178     0.003     0.230 .00000E+00 0.000E+00 0.000E+00 0.000E+00    20
BIGSUB   1        0    5.12360E+04    14.600     0.000   160.727    43.648    83.448     0.000     0.000     0.000     0.074     0.000     0.000     0.000     0.000     0.000     0.000     0.074     0.001     0.000 .00000E+00 0.000E+00 0.000E+00 0.000E+00     1
BIGSUB   2        0    5.37400E+03    14.600     0.000   160.753    43.573    83.996     0.000     0.000     0.991     1.250     0.000     0.000     0.000     0.000     0.000     0.000     0.259     0.002     0.000 .00000E+00 0.000E+00 0.000E+00 0.000E+00     2
BIGSUB   3        0    5.14590E+04    14.600     0.000   160.727    43.854    87.067     0.000     0.000     0.879     0.977     0.000     0.000     0.000     0.000     0.000     0.000     0.098     0.001     0.000 .00000E+00 0.000E+00 0.000E+00 0.000E+00     3
BIGSUB   4        0    5.91800E+03    14.600     0.000   160.731    43.738    84.939     0.000     0.000     0.000     0.072     0.000     0.000     0.000     0.000     0.000     0.000     0.072     0.001     0.000 .00000E+00 0.000E+00 0.000E+00 0.000E+00     4
BIGSUB   5        0    5.37770E+04    14.600     0.000   160.773    43.824    86.535     0.000     0.000     0.779     0.845     0.000     0.000     0.000     0.000     0.000     0.000     0.066     0.001     0.000 .00000E+00 0.000E+00 0.000E+00 0.000E+00     5
BIGSUB   6        0    5.18250E+04    14.600     0.000   160.822    44.831    87.173     0.000     0.000     0.215     0.303     0.000     0.000     0.000     0.000     0.000     0.000     0.088     0.001     0.000 .00000E+00 0.000E+00 0.000E+00 0.000E+00     6
BIGSUB   7        0    5.14660E+04    14.600     0.000   160.827    41.616    62.916     0.000     0.000     4.238     4.253     0.000     0.000     0.000     0.000     0.000     0.000     0.015     0.000     0.359 .00000E+00 0.000E+00 0.000E+00 0.000E+00     7
BIGSUB   8        0    5.34940E+04    14.600     0.000   160.916    44.725    66.171     0.000     0.000     1.932     2.020     0.000     0.000     0.000     0.000     0.000     0.000     0.088     0.001     0.000 .00000E+00 0.000E+00 0.000E+00 0.000E+00     8
BIGSUB   9        0    5.47420E+04    22.800     0.000   152.008    47.509    67.345     0.000     0.000     0.000     0.053     0.000     0.000     0.000     0.000     0.000     0.000     0.053     0.001     0.000 .00000E+00 0.000E+00 0.000E+00 0.000E+00     9
BIGSUB  10        0    5.13380E+04    22.800     0.000   152.061    46.080    70.104     0.000     0.000     0.000     0.026     0.000     0.000     0.000     0.000     0.000     0.000     0.026     0.001     0.000 .00000E+00 0.000E+00 0.000E+00 0.000E+00    10
BIGSUB  11        0    5.24060E+04    42.426     0.000   127.176    35.175    72.903     0.000     0.000     0.000     0.024     0.000     0.000     0.000     0.000     0.000     0.000     0.024     0.000     0.000 .00000E+00 0.000E+00 0.000E+00 0.000E+00    11
BIGSUB  12        0    5.19770E+04     7.800     0.000   138.410    43.727   139.196     0.010     0.000     3.591     3.615     0.000     0.000     0.000     0.000     0.000     0.000     0.024     0.000     0.286 .00000E+00 0.000E+00 0.000E+00 0.000E+00    12
BIGSUB  13        0    5.16410E+04    42.426     0.000   127.208    32.369    76.339     0.000     0.000     0.000     0.016     0.000     0.000     0.000     0.000     0.000     0.000     0.016     0.000     0.000 .00000E+00 0.000E+00 0.000E+00 0.000E+00    13
BIGSUB  14        0    5.52740E+04     7.800     0.000   138.467    40.701   116.312     0.365     0.000     8.101     8.161     0.000     0.000     0.000     0.000     0.000     0.000     0.060     0.001     0.421 .00000E+00 0.000E+00 0.000E+00 0.000E+00    14
BIGSUB  15        0    5.42200E+03    42.426     0.000   127.236    33.366    74.869     0.000     0.000     0.000     0.015     0.000     0.000     0.000     0.000     0.000     0.000     0.015     0.000     0.000 .00000E+00 0.000E+00 0.000E+00 0.000E+00    15
BIGSUB  16        0    5.13850E+04    42.426     0.000   127.259    37.236    69.434     0.000     0.000     0.000     0.016     0.000     0.000     0.000     0.000     0.000     0.000     0.016     0.000     0.000 .00000E+00 0.000E+00 0.000E+00 0.000E+00    16
BIGSUB  17        0    5.17180E+04     7.800     0.000   138.520    35.787    70.210     1.525     0.000     0.000     0.019     0.000     0.000     0.000     0.000     0.000     0.000     0.019     0.000     0.000 .00000E+00 0.000E+00 0.000E+00 0.000E+00    17
BIGSUB  18        0    5.26090E+04     7.800     0.000   138.503    42.949   139.270     0.000     0.000     4.913     4.949     0.000     0.000     0.000     0.000     0.000     0.000     0.036     0.001     0.000 .00000E+00 0.000E+00 0.000E+00 0.000E+00    18
BIGSUB  19        0    5.25380E+04     7.800     0.000   138.552    39.955   114.466     0.202     0.000     0.000     0.107     0.000     0.000     0.000     0.000     0.000     0.000     0.107     0.002     0.000 .00000E+00 0.000E+00 0.000E+00 0.000E+00    19
BIGSUB  20        0    5.19820E+04     7.800     0.000   138.566    38.905   105.691     0.274     0.000     1.840     1.969     0.000     0.000     0.000     0.000     0.000     0.000     0.129     0.002     0.000 .00000E+00 0.000E+00 0.000E+00 0.000E+00    20
BIGSUB   1        0    6.12360E+04     3.200     0.000   209.138    81.471     5.174     0.000     0.000     0.000     0.039     0.000     0.000     0.000     0.000     0.000     0.000     0.039     0.001     0.000 .00000E+00 0.000E+00 0.000E+00 0.000E+00     1
BIGSUB   2        0    6.37400E+03     3.200     0.000   209.116    81.564     5.617     0.000     0.000     0.345     0.413     0.000     0.000     0.000     0.000     0.000     0.000     0.069     0.001     0.000 .00000E+00 0.000E+00 0.000E+00 0.000E+00     2
BIGSUB   3        0    6.14590E+04     3.200     0.000   209.138    81.897     8.366     0.000     0.000     0.286     0.349     0.000     0.000     0.000     0.000     0.000     0.000     0.063     0.001     0.000 .00000E+00 0.000E+00 0.000E+00 0.000E+00     3
BIGSUB   4        0    6.91800E+03     3.200     0.000   209.135    81.642     6.494     0.000     0.000     0.000     0.040     0.000     0.000     0.000     0.000     0.000     0.000     0.040     0.001     0.000 .00000E+00 0.000E+00 0.000E+00 0.000E+00     4
BIGSUB   5        0    6.37770E+04     3.200     0.000   209.098    81.864     7.868     0.000     0.000     0.281     0.323     0.000     0.000     0.000     0.000     0.000     0.000     0.042     0.000     0.000 .00000E+00 0.000E+00 0.000E+00 0.000E+00     5
BIGSUB   6        0    6.18250E+04     3.200     0.000   209.052    81.395     8.975     0.000     0.000     0.078     0.145     0.000     0.000     0.000     0.000     0.000     0.000     0.067     0.001     0.000 .00000E+00 0.000E+00 0.000E+00 0.000E+00     6
BIGSUB   7        0    6.14660E+04     3.200     0.000   209.048    66.115     0.000     0.000     0.000     1.977     1.991     0.000     0.000     0.000     0.000     0.000     0.000     0.013     0.000     0.000 .00000E+00 0.000E+00 0.000E+00 0.000E+00     7
BIGSUB   8        0    6.34940E+04     3.200     0.000   208.953    69.367     0.000     0.000     0.000     0.695     0.747     0.000     0.000     0.000     0.000     0.000     0.000     0.052     0.001     0.000 .00000E+00 0.000E+00 0.000E+00 0.000E+00     8
BIGSUB   9        0    6.47420E+04     0.000     0.000   194.207    45.348    21.997     0.000     0.000     0.000     0.030     0.000     0.000     0.000     0.000     0.000     0.000     0.030     0.000     0.000 .00000E+00 0.000E+00 0.000E+00 0.000E+00     9
BIGSUB  10        0    6.13380E+04     0.000     0.000   194.144    41.890    28.214     0.000     0.000     0.000     0.023     0.000     0.000     0.000     0.000     0.000     0.000     0.023     0.000     0.000 .00000E+00 0.000E+00 0.000E+00 0.000E+00    10
BIGSUB  11        0    6.24060E+04     0.000     0.000   163.238    50.561    22.342     0.000     0.000     0.000     0.023     0.000     0.000     0.000     0.000     0.000     0.000     0.023     0.000     0.000 .00000E+00 0.000E+00 0.000E+00 0.000E+00    11
BIGSUB  12        0    6.19770E+04     0.000     0.000   178.358    52.770    86.425     0.000     0.000     1.658     1.678     0.000     0.000     0.000     0.000     0.000     0.000     0.021     0.000     0.000 .00000E+00 0.000E+00 0.000E+00 0.000E+00    12
BIGSUB  13        0    6.16410E+04     0.000     0.000   163.194    48.407    27.932     0.000     0.000     0.000     0.015     0.000     0.000     0.000     0.000     0.000     0.000     0.015     0.000     0.000 .00000E+00 0.000E+00 0.000E+00 0.000E+00    13
BIGSUB  14        0    6.52740E+04     0.000     0.000   178.273    48.737    67.575     0.000     0.000     3.344     3.392     0.000     0.000     0.000     0.000     0.000     0.000     0.049     0.001     0.000 .00000E+00 0.000E+00 0.000E+00 0.000E+00    14
BIGSUB  15        0    6.42200E+03     0.000     0.000   163.150    48.025    26.844     0.000     0.000     0.000     0.014     0.000     0.000     0.000     0.000     0.000     0.000     0.014     0.000     0.000 .00000E+00 0.000E+00 0.000E+00 0.000E+00    15
BIGSUB  16        0    6.13850E+04     0.000     0.000   163.112    51.196    18.238     0.000     0.000     0.000     0.015     0.000     0.000     0.000     0.000     0.000     0.000     0.015     0.000     0.000 .00000E+00 0.000E+00 0.000E+00 0.000E+00    16
BIGSUB  17        0    6.17180E+04     0.000     0.000   178.180    44.689    25.521     0.000     0.000     0.000     0.017     0.000     0.000     0.000     0.000     0.000     0.000     0.017     0.000     0.000 .00000E+00 0.000E+00 0.000E+00 0.000E+00    17
BIGSUB  18        0    6.26090E+04     0.000     0.000   178.211    50.610    88.660     0.000     0.000     1.753     1.783     0.000     0.000     0.000     0.000     0.000     0.000     0.030     0.001     0.000 .00000E+00 0.000E+00 0.000E+00 0.000E+00    18
BIGSUB  19        0    6.25380E+04     0.000     0.000   178.116    48.514    65.952     0.000     0.000     0.000     0.053     0.000     0.000     0.000     0.000     0.000     0.000     0.053     0.001     0.000 .00000E+00 0.000E+00 0.000E+00 0.000E+00    19
BIGSUB  20        0    6.19820E+04     0.000     0.000   178.086    47.774    57.917     0.000     0.000     0.628     0.692     0.000     0.000     0.000     0.000     0.000     0.000     0.064     0.001     0.000 .00000E+00 0.000E+00 0.000E+00 0.000E+00    20
BIGSUB   1        0    7.12360E+04     0.000     0.000   212.019     5.174     0.000     0.000     0.000     0.000     0.024     0.000     0.000     0.000     0.000     0.000     0.000     0.024     0.000     0.000 .00000E+00 0.000E+00 0.000E+00 0.000E+00     1
BIGSUB   2        0    7.37400E+03     0.000     0.000   212.020     5.617     0.000     0.000     0.000     0.134     0.172     0.000     0.000     0.000     0.000     0.000     0.000     0.038     0.001     0.000 .00000E+00 0.000E+00 0.000E+00 0.000E+00     2
BIGSUB   3        0    7.14590E+04     0.000     0.000   212.019     8.366     0.000     0.000     0.000     0.111     0.157     0.000     0.000     0.000     0.000     0.000     0.000     0.047     0.001     0.000 .00000E+00 0.000E+00 0.000E+00 0.000E+00     3
BIGSUB   4        0    7.91800E+03     0.000     0.000   212.019     6.494     0.000     0.000     0.000     0.000     0.025     0.000     0.000     0.000     0.000     0.000     0.000     0.025     0.000     0.000 .00000E+00 0.000E+00 0.000E+00 0.000E+00     4
BIGSUB   5        0    7.37770E+04     0.000     0.000   212.020     7.869     0.000     0.000     0.000     0.109     0.139     0.000     0.000     0.000     0.000     0.000     0.000     0.030     0.000     0.000 .00000E+00 0.000E+00 0.000E+00 0.000E+00     5
BIGSUB   6        0    7.18250E+04     0.000     0.000   212.020     8.975     0.000     0.000     0.000     0.030     0.084     0.000     0.000     0.000     0.000     0.000     0.000     0.054     0.001     0.000 .00000E+00 0.000E+00 0.000E+00 0.000E+00     6
BIGSUB   7        0    7.14660E+04     0.000     0.000   212.020     0.000     0.000     0.000     0.000     0.766     0.779     0.000     0.000     0.000     0.000     0.000     0.000     0.013     0.000     0.000 .00000E+00 0.000E+00 0.000E+00 0.000E+00     7
BIGSUB   8        0    7.34940E+04     0.000     0.000   212.012     0.000     0.000     0.000     0.000     0.269     0.305     0.000     0.000     0.000     0.000     0.000     0.000     0.036     0.001     0.000 .00000E+00 0.000E+00 0.000E+00 0.000E+00     8
BIGSUB   9        0    7.47420E+04     1.000     0.000   196.409    22.997     0.000     0.000     0.000     0.000     0.017     0.000     0.000     0.000     0.000     0.000     0.000     0.017     0.000     0.000 .00000E+00 0.000E+00 0.000E+00 0.000E+00     9
BIGSUB  10        0    7.13380E+04     1.000     0.000   196.401    29.214     0.000     0.000     0.000     0.000     0.021     0.000     0.000     0.000     0.000     0.000     0.000     0.021     0.000     0.000 .00000E+00 0.000E+00 0.000E+00 0.000E+00    10
BIGSUB  11        0    7.24060E+04     9.668     0.000   180.777    32.006     0.000     0.000     0.000     0.000     0.021     0.000     0.000     0.000     0.000     0.000     0.000     0.021     0.000     0.000 .00000E+00 0.000E+00 0.000E+00 0.000E+00    11
BIGSUB  12        0    7.19770E+04     0.200     0.000   186.728    86.626     0.000     0.000     0.000     0.642     0.661     0.000     0.000     0.000     0.000     0.000     0.000     0.019     0.000     0.000 .00000E+00 0.000E+00 0.000E+00 0.000E+00    12
BIGSUB  13        0    7.16410E+04     9.668     0.000   180.767    37.599     0.000     0.000     0.000     0.000     0.014     0.000     0.000     0.000     0.000     0.000     0.000     0.014     0.000     0.000 .00000E+00 0.000E+00 0.000E+00 0.000E+00    13
BIGSUB  14        0    7.52740E+04     0.200     0.000   186.711    67.775     0.000     0.000     0.000     1.295     1.337     0.000     0.000     0.000     0.000     0.000     0.000     0.042     0.001     0.000 .00000E+00 0.000E+00 0.000E+00 0.000E+00    14
BIGSUB  15        0    7.42200E+03     9.668     0.000   180.756    36.510     0.000     0.000     0.000     0.000     0.013     0.000     0.000     0.000     0.000     0.000     0.000     0.013     0.000     0.000 .00000E+00 0.000E+00 0.000E+00 0.000E+00    15
BIGSUB  16        0    7.13850E+04     9.668     0.000   180.745    27.904     0.000     0.000     0.000     0.000     0.014     0.000     0.000     0.000     0.000     0.000     0.000     0.014     0.000     0.000 .00000E+00 0.000E+00 0.000E+00 0.000E+00    16
BIGSUB  17        0    7.17180E+04     0.200     0.000   186.687    25.722     0.000     0.000     0.000     0.000     0.016     0.000     0.000     0.000     0.000     0.000     0.000     0.016     0.000     0.000 .00000E+00 0.000E+00 0.000E+00 0.000E+00    17
BIGSUB  18        0    7.26090E+04     0.200     0.000   186.696    88.860     0.000     0.000     0.000     0.679     0.706     0.000     0.000     0.000     0.000     0.000     0.000     0.027     0.001     0.000 .00000E+00 0.000E+00 0.000E+00 0.000E+00    18
BIGSUB  19        0    7.25380E+04     0.200     0.000   186.668    66.152     0.000     0.000     0.000     0.000     0.030     0.000     0.000     0.000     0.000     0.000     0.000     0.030     0.000     0.000 .00000E+00 0.000E+00 0.000E+00 0.000E+00    19
BIGSUB  20        0    7.19820E+04     0.200     0.000   186.659    58.117     0.000     0.000     0.000     0.243     0.279     0.000     0.000     0.000     0.000     0.000     0.000     0.036     0.001     0.000 .00000E+00 0.000E+00 0.000E+00 0.000E+00    20
BIGSUB   1        0    8.12360E+04     0.000     0.000   189.929     0.000     0.000     0.000     0.000     0.000     0.015     0.000     0.000     0.000     0.000     0.000     0.000     0.015     0.000     0.000 .00000E+00 0.000E+00 0.000E+00 0.000E+00     1
BIGSUB   2        0    8.37400E+03     0.000     0.000   190.021     0.000     0.000     0.000     0.000     0.049     0.072     0.000     0.000     0.000     0.000     0.000     0.000     0.022     0.000     0.000 .00000E+00 0.000E+00 0.000E+00 0.000E+00     2
BIGSUB   3        0    8.14590E+04     0.000     0.000   189.927     0.000     0.000     0.000     0.000     0.041     0.076     0.000     0.000     0.000     0.000     0.000     0.000     0.035     0.000     0.000 .00000E+00 0.000E+00 0.000E+00 0.000E+00     3
BIGSUB   4        0    8.91800E+03     0.000     0.000   189.943     0.000     0.000     0.000     0.000     0.000     0.016     0.000     0.000     0.000     0.000     0.000     0.000     0.016     0.000     0.000 .00000E+00 0.000E+00 0.000E+00 0.000E+00     4
BIGSUB   5        0    8.37770E+04     0.000     0.000   190.092     0.000     0.000     0.000     0.000     0.040     0.061     0.000     0.000     0.000     0.000     0.000     0.000     0.021     0.000     0.000 .00000E+00 0.000E+00 0.000E+00 0.000E+00     5
BIGSUB   6        0    8.18250E+04     0.000     0.000   190.268     0.000     0.000     0.000     0.000     0.011     0.052     0.000     0.000     0.000     0.000     0.000     0.000     0.041     0.000     0.000 .00000E+00 0.000E+00 0.000E+00 0.000E+00     6
BIGSUB   7        0    8.14660E+04     0.000     0.000   190.284     0.000     0.000     0.000     0.000     0.282     0.293     0.000     0.000     0.000     0.000     0.000     0.000     0.012     0.000     0.000 .00000E+00 0.000E+00 0.000E+00 0.000E+00     7
BIGSUB   8        0    8.34940E+04     0.000     0.000   190.617     0.000     0.000     0.000     0.000     0.099     0.124     0.000     0.000     0.000     0.000     0.000     0.000     0.025     0.000     0.000 .00000E+00 0.000E+00 0.000E+00 0.000E+00     8
BIGSUB   9        0    8.47420E+04     0.500     0.000   187.150     0.500     0.000     0.000     0.000     0.000     0.010     0.000     0.000     0.000     0.000     0.000     0.000     0.010     0.000     0.000 .00000E+00 0.000E+00 0.000E+00 0.000E+00     9
BIGSUB  10        0    8.13380E+04     0.500     0.000   187.362     0.500     0.000     0.000     0.000     0.000     0.019     0.000     0.000     0.000     0.000     0.000     0.000     0.019     0.000     0.000 .00000E+00 0.000E+00 0.000E+00 0.000E+00    10
BIGSUB  11        0    8.24060E+04     0.000     0.000   176.056     0.000     0.000     0.000     0.000     0.000     0.018     0.000     0.000     0.000     0.000     0.000     0.000     0.018     0.000     0.000 .00000E+00 0.000E+00 0.000E+00 0.000E+00    11
BIGSUB  12        0    8.19770E+04     0.000     0.000   180.679     0.000     0.000     0.000     0.000     0.236     0.253     0.000     0.000     0.000     0.000     0.000     0.000     0.016     0.000     0.000 .00000E+00 0.000E+00 0.000E+00 0.000E+00    12
BIGSUB  13        0    8.16410E+04     0.000     0.000   176.210     0.000     0.000     0.000     0.000     0.000     0.013     0.000     0.000     0.000     0.000     0.000     0.000     0.013     0.000     0.000 .00000E+00 0.000E+00 0.000E+00 0.000E+00    13
BIGSUB  14        0    8.52740E+04     0.000     0.000   180.945     0.000     0.000     0.000     0.000     0.476     0.511     0.000     0.000     0.000     0.000     0.000     0.000     0.035     0.001     0.000 .00000E+00 0.000E+00 0.000E+00 0.000E+00    14
BIGSUB  15        0    8.42200E+03     0.000     0.000   176.352     0.000     0.000     0.000     0.000     0.000     0.012     0.000     0.000     0.000     0.000     0.000     0.000     0.012     0.000     0.000 .00000E+00 0.000E+00 0.000E+00 0.000E+00    15
BIGSUB  16        0    8.13850E+04     0.000     0.000   176.472     0.000     0.000     0.000     0.000     0.000     0.012     0.000     0.000     0.000     0.000     0.000     0.000     0.012     0.000     0.000 .00000E+00 0.000E+00 0.000E+00 0.000E+00    16
BIGSUB  17        0    8.17180E+04     0.000     0.000   181.211     0.000     0.000     0.000     0.000     0.000     0.014     0.000     0.000     0.000     0.000     0.000     0.000     0.014     0.000     0.000 .00000E+00 0.000E+00 0.000E+00 0.000E+00    17
BIGSUB  18        0    8.26090E+04     0.000     0.000   181.126     0.000     0.000     0.000     0.000     0.250     0.273     0.000     0.000     0.000     0.000     0.000     0.000     0.024     0.000     0.000 .00000E+00 0.000E+00 0.000E+00 0.000E+00    18
BIGSUB  19        0    8.25380E+04     0.000     0.000   181.382     0.000     0.000     0.000     0.000     0.000     0.018     0.000     0.000     0.000     0.000     0.000     0.000     0.018     0.000     0.000 .00000E+00 0.000E+00 0.000E+00 0.000E+00    19
BIGSUB  20        0    8.19820E+04     0.000     0.000   181.460     0.000     0.000     0.000     0.000     0.089     0.111     0.000     0.000     0.000     0.000     0.000     0.000     0.022     0.001     0.000 .00000E+00 0.000E+00 0.000E+00 0.000E+00    20
BIGSUB   1        0    9.12360E+04     0.000     0.000   154.252     0.000     0.000     0.000     0.000     0.000     0.010     0.000     0.000     0.000     0.000     0.000     0.000     0.010     0.000     0.000 .00000E+00 0.000E+00 0.000E+00 0.000E+00     1
BIGSUB   2        0    9.37400E+03     0.000     0.000   154.449     0.000     0.000     0.000     0.000     0.018     0.036     0.000     0.000     0.000     0.000     0.000     0.000     0.018     0.000     0.000 .00000E+00 0.000E+00 0.000E+00 0.000E+00     2
BIGSUB   3        0    9.14590E+04     0.000     0.000   154.247     0.000     0.000     0.000     0.000     0.015     0.042     0.000     0.000     0.000     0.000     0.000     0.000     0.027     0.000     0.000 .00000E+00 0.000E+00 0.000E+00 0.000E+00     3
BIGSUB   4        0    9.91800E+03     0.000     0.000   154.282     0.000     0.000     0.000     0.000     0.000     0.012     0.000     0.000     0.000     0.000     0.000     0.000     0.012     0.000     0.000 .00000E+00 0.000E+00 0.000E+00 0.000E+00     4
BIGSUB   5        0    9.37770E+04     0.000     0.000   154.602     0.000     0.000     0.000     0.000     0.014     0.030     0.000     0.000     0.000     0.000     0.000     0.000     0.016     0.000     0.000 .00000E+00 0.000E+00 0.000E+00 0.000E+00     5
BIGSUB   6        0    9.18250E+04     0.000     0.000   154.982     0.000     0.000     0.000     0.000     0.004     0.035     0.000     0.000     0.000     0.000     0.000     0.000     0.031     0.000     0.000 .00000E+00 0.000E+00 0.000E+00 0.000E+00     6
BIGSUB   7        0    9.14660E+04     0.000     0.000   155.018     0.000     0.000     0.000     0.000     0.102     0.112     0.000     0.000     0.000     0.000     0.000     0.000     0.010     0.000     0.000 .00000E+00 0.000E+00 0.000E+00 0.000E+00     7
BIGSUB   8        0    9.34940E+04     0.000     0.000   155.749     0.000     0.000     0.000     0.000     0.036     0.054     0.000     0.000     0.000     0.000     0.000     0.000     0.019     0.000     0.000 .00000E+00 0.000E+00 0.000E+00 0.000E+00     8
BIGSUB   9        0    9.47420E+04     0.000     0.000   151.075     0.000     0.000     0.000     0.000     0.000     0.007     0.000     0.000     0.000     0.000     0.000     0.000     0.007     0.000     0.000 .00000E+00 0.000E+00 0.000E+00 0.000E+00     9
BIGSUB  10        0    9.13380E+04     0.000     0.000   151.541     0.000     0.000     0.000     0.000     0.000     0.016     0.000     0.000     0.000     0.000     0.000     0.000     0.016     0.000     0.000 .00000E+00 0.000E+00 0.000E+00 0.000E+00    10
BIGSUB  11        0    9.24060E+04     1.380     0.000   121.829     1.380     0.000     0.000     0.000     0.000     0.015     0.000     0.000     0.000     0.000     0.000     0.000     0.015     0.000     0.000 .00000E+00 0.000E+00 0.000E+00 0.000E+00    11
BIGSUB  12        0    9.19770E+04     0.000     0.000   137.300     0.000     0.000     0.000     0.000     0.085     0.099     0.000     0.000     0.000     0.000     0.000     0.000     0.014     0.000     0.000 .00000E+00 0.000E+00 0.000E+00 0.000E+00    12
BIGSUB  13        0    9.16410E+04     1.380     0.000   122.115     1.380     0.000     0.000     0.000     0.000     0.012     0.000     0.000     0.000     0.000     0.000     0.000     0.012     0.000     0.000 .00000E+00 0.000E+00 0.000E+00 0.000E+00    13
BIGSUB  14        0    9.52740E+04     0.000     0.000   137.661     0.000     0.000     0.000     0.000     0.172     0.200     0.000     0.000     0.000     0.000     0.000     0.000     0.028     0.001     0.000 .00000E+00 0.000E+00 0.000E+00 0.000E+00    14
BIGSUB  15        0    9.42200E+03     1.380     0.000   122.381     1.380     0.000     0.000     0.000     0.000     0.010     0.000     0.000     0.000     0.000     0.000     0.000     0.010     0.000     0.000 .00000E+00 0.000E+00 0.000E+00 0.000E+00    15
BIGSUB  16        0    9.13850E+04     1.380     0.000   122.608     1.380     0.000     0.000     0.000     0.000     0.010     0.000     0.000     0.000     0.000     0.000     0.000     0.010     0.000     0.000 .00000E+00 0.000E+00 0.000E+00 0.000E+00    16
BIGSUB  17        0    9.17180E+04     0.000     0.000   138.230     0.000     0.000     0.000     0.000     0.000     0.013     0.000     0.000     0.000     0.000     0.000     0.000     0.013     0.000     0.000 .00000E+00 0.000E+00 0.000E+00 0.000E+00    17
BIGSUB  18        0    9.26090E+04     0.000     0.000   138.047     0.000     0.000     0.000     0.000     0.090     0.110     0.000     0.000     0.000     0.000     0.000     0.000     0.020     0.000     0.000 .00000E+00 0.000E+00 0.000E+00 0.000E+00    18
BIGSUB  19        0    9.25380E+04     0.000     0.000   138.599     0.000     0.000     0.000     0.000     0.000     0.012     0.000     0.000     0.000     0.000     0.000     0.000     0.012     0.000     0.000 .00000E+00 0.000E+00 0.000E+00 0.000E+00    19
BIGSUB  20        0    9.19820E+04     0.000     0.000   138.769     0.000     0.000     0.000     0.000     0.032     0.047     0.000     0.000     0.000     0.000     0.000     0.000     0.015     0.000     0.000 .00000E+00 0.000E+00 0.000E+00 0.000E+00    20
BIGSUB   1        0   10.12360E+04    17.900     0.000    88.216     9.272     8.605     0.000     0.000     0.000     0.014     0.000     0.000     0.000     0.000     0.000     0.000     0.014     0.000     0.000 .00000E+00 0.000E+00 0.000E+00 0.000E+00     1
BIGSUB   2        0   10.37400E+03    17.900     0.000    88.421     9.282     8.515     0.000     0.000     0.007     0.079     0.000     0.000     0.000     0.000     0.000     0.000     0.072     0.001     0.000 .00000E+00 0.000E+00 0.000E+00 0.000E+00     2
BIGSUB   3        0   10.14590E+04    17.900     0.000    88.212     9.297     8.570     0.000     0.000     0.006     0.035     0.000     0.000     0.000     0.000     0.000     0.000     0.030     0.000     0.000 .00000E+00 0.000E+00 0.000E+00 0.000E+00     3
BIGSUB   4        0   10.91800E+03    17.900     0.000    88.247     9.284     8.593     0.000     0.000     0.000     0.015     0.000     0.000     0.000     0.000     0.000     0.000     0.015     0.000     0.000 .00000E+00 0.000E+00 0.000E+00 0.000E+00     4
BIGSUB   5        0   10.37770E+04    17.900     0.000    88.580     9.326     8.554     0.000     0.000     0.006     0.023     0.000     0.000     0.000     0.000     0.000     0.000     0.017     0.000     0.000 .00000E+00 0.000E+00 0.000E+00 0.000E+00     5
BIGSUB   6        0   10.18250E+04    17.900     0.000    88.976     9.406     8.466     0.000     0.000     0.002     0.030     0.000     0.000     0.000     0.000     0.000     0.000     0.028     0.000     0.000 .00000E+00 0.000E+00 0.000E+00 0.000E+00     6
BIGSUB   7        0   10.14660E+04    17.900     0.000    89.013     9.188     8.708     0.000     0.000     0.039     0.049     0.000     0.000     0.000     0.000     0.000     0.000     0.010     0.000     0.000 .00000E+00 0.000E+00 0.000E+00 0.000E+00     7
BIGSUB   8        0   10.34940E+04    17.900     0.000    89.777     9.252     8.624     0.000     0.000     0.014     0.036     0.000     0.000     0.000     0.000     0.000     0.000     0.022     0.000     0.000 .00000E+00 0.000E+00 0.000E+00 0.000E+00     8
BIGSUB   9        0   10.47420E+04    20.400     0.000    81.612    10.595     9.783     0.000     0.000     0.000     0.009     0.000     0.000     0.000     0.000     0.000     0.000     0.009     0.000     0.000 .00000E+00 0.000E+00 0.000E+00 0.000E+00     9
BIGSUB  10        0   10.13380E+04    20.400     0.000    82.069    10.365    10.021     0.000     0.000     0.000     0.015     0.000     0.000     0.000     0.000     0.000     0.000     0.015     0.000     0.000 .00000E+00 0.000E+00 0.000E+00 0.000E+00    10
BIGSUB  11        0   10.24060E+04    19.432     0.000    65.404    13.467     5.953     0.000     0.000     0.000     0.014     0.000     0.000     0.000     0.000     0.000     0.000     0.014     0.000     0.000 .00000E+00 0.000E+00 0.000E+00 0.000E+00    11
BIGSUB  12        0   10.19770E+04    18.400     0.000    73.005     6.598    11.794     0.000     0.000     0.033     0.046     0.000     0.000     0.000     0.000     0.000     0.000     0.013     0.000     0.000 .00000E+00 0.000E+00 0.000E+00 0.000E+00    12
BIGSUB  13        0   10.16410E+04    19.432     0.000    65.694    13.356     6.071     0.000     0.000     0.000     0.011     0.000     0.000     0.000     0.000     0.000     0.000     0.011     0.000     0.000 .00000E+00 0.000E+00 0.000E+00 0.000E+00    13
BIGSUB  14        0   10.52740E+04    18.400     0.000    73.547     6.746    11.640     0.000     0.000     0.067     0.091     0.000     0.000     0.000     0.000     0.000     0.000     0.025     0.000     0.000 .00000E+00 0.000E+00 0.000E+00 0.000E+00    14
BIGSUB  15        0   10.42200E+03    19.432     0.000    65.964    13.265     6.161     0.000     0.000     0.000     0.010     0.000     0.000     0.000     0.000     0.000     0.000     0.010     0.000     0.000 .00000E+00 0.000E+00 0.000E+00 0.000E+00    15
BIGSUB  16        0   10.13850E+04    19.432     0.000    66.195    13.533     5.891     0.000     0.000     0.000     0.010     0.000     0.000     0.000     0.000     0.000     0.000     0.010     0.000     0.000 .00000E+00 0.000E+00 0.000E+00 0.000E+00    16
BIGSUB  17        0   10.17180E+04    18.400     0.000    74.101     6.903    11.494     0.000     0.000     0.000     0.012     0.000     0.000     0.000     0.000     0.000     0.000     0.012     0.000     0.000 .00000E+00 0.000E+00 0.000E+00 0.000E+00    17
BIGSUB  18        0   10.26090E+04    18.400     0.000    73.922     6.720    11.669     0.000     0.000     0.035     0.053     0.000     0.000     0.000     0.000     0.000     0.000     0.018     0.000     0.000 .00000E+00 0.000E+00 0.000E+00 0.000E+00    18
BIGSUB  19        0   10.25380E+04    18.400     0.000    74.462     6.836    11.543     0.000     0.000     0.000     0.011     0.000     0.000     0.000     0.000     0.000     0.000     0.011     0.000     0.000 .00000E+00 0.000E+00 0.000E+00 0.000E+00    19
BIGSUB  20        0   10.19820E+04    18.400     0.000    74.629     6.874    11.501     0.000     0.000     0.013     0.027     0.000     0.000     0.000     0.000     0.000     0.000     0.014     0.000     0.000 .00000E+00 0.000E+00 0.000E+00 0.000E+00    20
BIGSUB   1        0   11.12360E+04    13.000     0.000    54.578     7.566    14.019     0.000     0.000     0.000     0.020     0.000     0.000     0.000     0.000     0.000     0.000     0.020     0.000     0.000 .00000E+00 0.000E+00 0.000E+00 0.000E+00     1
BIGSUB   2        0   11.37400E+03    13.000     0.000    54.774     7.484    13.936     0.000     0.000     0.002     0.110     0.000     0.000     0.000     0.000     0.000     0.000     0.108     0.001     0.000 .00000E+00 0.000E+00 0.000E+00 0.000E+00     2
BIGSUB   3        0   11.14590E+04    13.000     0.000    54.573     7.365    14.175     0.000     0.000     0.002     0.036     0.000     0.000     0.000     0.000     0.000     0.000     0.034     0.000     0.000 .00000E+00 0.000E+00 0.000E+00 0.000E+00     3
BIGSUB   4        0   11.91800E+03    13.000     0.000    54.607     7.489    14.084     0.000     0.000     0.000     0.021     0.000     0.000     0.000     0.000     0.000     0.000     0.021     0.000     0.000 .00000E+00 0.000E+00 0.000E+00 0.000E+00     4
BIGSUB   5        0   11.37770E+04    13.000     0.000    54.927     7.392    14.142     0.000     0.000     0.002     0.022     0.000     0.000     0.000     0.000     0.000     0.000     0.020     0.000     0.000 .00000E+00 0.000E+00 0.000E+00 0.000E+00     5
BIGSUB   6        0   11.18250E+04    13.000     0.000    55.309     7.317    14.122     0.000     0.000     0.001     0.029     0.000     0.000     0.000     0.000     0.000     0.000     0.028     0.000     0.000 .00000E+00 0.000E+00 0.000E+00 0.000E+00     6
BIGSUB   7        0   11.14660E+04    13.000     0.000    55.344     8.664    13.040     0.000     0.000     0.014     0.024     0.000     0.000     0.000     0.000     0.000     0.000     0.009     0.000     0.000 .00000E+00 0.000E+00 0.000E+00 0.000E+00     7
BIGSUB   8        0   11.34940E+04    13.000     0.000    56.082     8.422    13.180     0.000     0.000     0.005     0.032     0.000     0.000     0.000     0.000     0.000     0.000     0.027     0.000     0.000 .00000E+00 0.000E+00 0.000E+00 0.000E+00     8
BIGSUB   9        0   11.47420E+04     0.800     0.000    51.550    10.583     0.000     0.000     0.000     0.000     0.013     0.000     0.000     0.000     0.000     0.000     0.000     0.013     0.000     0.000 .00000E+00 0.000E+00 0.000E+00 0.000E+00     9
BIGSUB  10        0   11.13380E+04     0.800     0.000    52.001    10.821     0.000     0.000     0.000     0.000     0.014     0.000     0.000     0.000     0.000     0.000     0.000     0.014     0.000     0.000 .00000E+00 0.000E+00 0.000E+00 0.000E+00    10
BIGSUB  11        0   11.24060E+04   110.416    10.535    36.286    29.959    86.294     0.000     0.000     0.000     0.024     0.000     0.000     0.000     0.000     0.000     0.000     0.024     0.000     0.000 .00000E+00 0.000E+00 0.000E+00 0.000E+00    11
BIGSUB  12        0   11.19770E+04     6.000     0.000    44.945    15.759     2.032     0.000     0.000     0.012     0.024     0.000     0.000     0.000     0.000     0.000     0.000     0.012     0.000     0.000 .00000E+00 0.000E+00 0.000E+00 0.000E+00    12
BIGSUB  13        0   11.16410E+04   110.416    10.535    36.535    29.718    86.709     0.000     0.000     0.000     0.014     0.000     0.000     0.000     0.000     0.000     0.000     0.014     0.000     0.000 .00000E+00 0.000E+00 0.000E+00 0.000E+00    13
BIGSUB  14        0   11.52740E+04     6.000     0.000    45.466    15.410     2.226     0.000     0.000     0.024     0.046     0.000     0.000     0.000     0.000     0.000     0.000     0.022     0.000     0.000 .00000E+00 0.000E+00 0.000E+00 0.000E+00    14
BIGSUB  15        0   11.42200E+03   110.416    10.535    36.767    29.987    86.522     0.000     0.000     0.000     0.014     0.000     0.000     0.000     0.000     0.000     0.000     0.014     0.000     0.000 .00000E+00 0.000E+00 0.000E+00 0.000E+00    15
BIGSUB  16        0   11.13850E+04   110.416    10.535    36.967    30.759    85.470     0.000     0.000     0.000     0.016     0.000     0.000     0.000     0.000     0.000     0.000     0.016     0.000     0.000 .00000E+00 0.000E+00 0.000E+00 0.000E+00    16
BIGSUB  17        0   11.17180E+04     6.000     0.000    46.001    13.885     3.608     0.000     0.000     0.000     0.011     0.000     0.000     0.000     0.000     0.000     0.000     0.011     0.000     0.000 .00000E+00 0.000E+00 0.000E+00 0.000E+00    17
BIGSUB  18        0   11.26090E+04     6.000     0.000    45.828    16.262     1.404     0.000     0.000     0.013     0.029     0.000     0.000     0.000     0.000     0.000     0.000     0.017     0.000     0.000 .00000E+00 0.000E+00 0.000E+00 0.000E+00    18
BIGSUB  19        0   11.25380E+04     6.000     0.000    46.349    15.635     1.902     0.000     0.000     0.000     0.018     0.000     0.000     0.000     0.000     0.000     0.000     0.018     0.000     0.000 .00000E+00 0.000E+00 0.000E+00 0.000E+00    19
BIGSUB  20        0   11.19820E+04     6.000     0.000    46.511    15.405     2.090     0.000     0.000     0.005     0.027     0.000     0.000     0.000     0.000     0.000     0.000     0.022     0.000     0.000 .00000E+00 0.000E+00 0.000E+00 0.000E+00    20
BIGSUB   1        0   12.12360E+04    39.000     0.000    27.257     7.591    34.380     0.000     0.000     0.000     0.029     0.000     0.000     0.000     0.000     0.000     0.000     0.029     0.000     0.000 .00000E+00 0.000E+00 0.000E+00 0.000E+00     1
BIGSUB   2        0   12.37400E+03    39.000     0.000    27.379     7.426    34.295     0.000     0.000     0.001     0.163     0.000     0.000     0.000     0.000     0.000     0.000     0.162     0.000     0.000 .00000E+00 0.000E+00 0.000E+00 0.000E+00     2
BIGSUB   3        0   12.14590E+04    39.000     0.000    27.255     7.166    34.940     0.000     0.000     0.001     0.043     0.000     0.000     0.000     0.000     0.000     0.000     0.042     0.000     0.000 .00000E+00 0.000E+00 0.000E+00 0.000E+00     3
BIGSUB   4        0   12.91800E+03    39.000     0.000    27.276     7.426    34.611     0.000     0.000     0.000     0.029     0.000     0.000     0.000     0.000     0.000     0.000     0.029     0.000     0.000 .00000E+00 0.000E+00 0.000E+00 0.000E+00     4
BIGSUB   5        0   12.37770E+04    39.000     0.000    27.473     7.197    34.901     0.000     0.000     0.001     0.027     0.000     0.000     0.000     0.000     0.000     0.000     0.026     0.000     0.000 .00000E+00 0.000E+00 0.000E+00 0.000E+00     5
BIGSUB   6        0   12.18250E+04    39.000     0.000    27.709     6.982    35.079     0.000     0.000     0.000     0.033     0.000     0.000     0.000     0.000     0.000     0.000     0.033     0.000     0.000 .00000E+00 0.000E+00 0.000E+00 0.000E+00     6
BIGSUB   7        0   12.14660E+04    39.000     0.000    27.731     8.896    32.134     0.000     0.000     0.006     0.015     0.000     0.000     0.000     0.000     0.000     0.000     0.009     0.000     0.000 .00000E+00 0.000E+00 0.000E+00 0.000E+00     7
BIGSUB   8        0   12.34940E+04    39.000     0.000    28.187     8.678    32.450     0.000     0.000     0.002     0.037     0.000     0.000     0.000     0.000     0.000     0.000     0.035     0.000     0.000 .00000E+00 0.000E+00 0.000E+00 0.000E+00     8
BIGSUB   9        0   12.47420E+04    15.300     0.100    28.129     2.876     2.024     0.000     0.000     0.000     0.008     0.000     0.000     0.000     0.000     0.000     0.000     0.008     0.000     0.000 .00000E+00 0.000E+00 0.000E+00 0.000E+00     9
BIGSUB  10        0   12.13380E+04    15.300     0.100    28.431     3.041     1.859     0.000     0.000     0.000     0.013     0.000     0.000     0.000     0.000     0.000     0.000     0.013     0.000     0.000 .00000E+00 0.000E+00 0.000E+00 0.000E+00    10
BIGSUB  11        0   12.24060E+04    22.312    16.670    21.931    16.542    92.052     0.000     0.000     0.000     0.028     0.000     0.000     0.000     0.000     0.000     0.000     0.028     0.000     0.000 .00000E+00 0.000E+00 0.000E+00 0.000E+00    11
BIGSUB  12        0   12.19770E+04    20.900     1.500    24.144     3.904     1.029     0.000     0.000     0.005     0.015     0.000     0.000     0.000     0.000     0.000     0.000     0.011     0.000     0.000 .00000E+00 0.000E+00 0.000E+00 0.000E+00    12
BIGSUB  13        0   12.16410E+04    22.312    16.667    22.113    16.311    92.704     0.000     0.000     0.000     0.015     0.000     0.000     0.000     0.000     0.000     0.000     0.015     0.000     0.000 .00000E+00 0.000E+00 0.000E+00 0.000E+00    13
BIGSUB  14        0   12.52740E+04    20.900     1.500    24.488     4.243     0.883     0.000     0.000     0.009     0.029     0.000     0.000     0.000     0.000     0.000     0.000     0.020     0.000     0.000 .00000E+00 0.000E+00 0.000E+00 0.000E+00    14
BIGSUB  15        0   12.42200E+03    22.312    16.664    22.284    16.517    92.310     0.000     0.000     0.000     0.016     0.000     0.000     0.000     0.000     0.000     0.000     0.016     0.000     0.000 .00000E+00 0.000E+00 0.000E+00 0.000E+00    15
BIGSUB  16        0   12.13850E+04    22.312    16.662    22.431    17.079    90.696     0.000     0.000     0.000     0.019     0.000     0.000     0.000     0.000     0.000     0.000     0.019     0.000     0.000 .00000E+00 0.000E+00 0.000E+00 0.000E+00    16
BIGSUB  17        0   12.17180E+04    20.900     1.500    24.842     5.778     0.729     0.000     0.000     0.000     0.011     0.000     0.000     0.000     0.000     0.000     0.000     0.011     0.000     0.000 .00000E+00 0.000E+00 0.000E+00 0.000E+00    17
BIGSUB  18        0   12.26090E+04    20.900     1.500    24.728     3.293     1.011     0.000     0.000     0.005     0.020     0.000     0.000     0.000     0.000     0.000     0.000     0.015     0.000     0.000 .00000E+00 0.000E+00 0.000E+00 0.000E+00    18
BIGSUB  19        0   12.25380E+04    20.900     1.500    25.073     3.944     0.857     0.000     0.000     0.000     0.012     0.000     0.000     0.000     0.000     0.000     0.000     0.012     0.000     0.000 .00000E+00 0.000E+00 0.000E+00 0.000E+00    19
BIGSUB  20        0   12.19820E+04    20.900     1.500    25.180     4.185     0.804     0.000     0.000     0.002     0.018     0.000     0.000     0.000     0.000     0.000     0.000     0.016     0.000     0.000 .00000E+00 0.000E+00 0.000E+00 0.000E+00    20
BIGSUB   1        0 1990.12360E+04   289.400    61.825  1311.747   271.648    34.380     6.432     0.000     0.000     0.513     0.000     0.000     0.000     0.000     0.000     0.000     0.513     0.007     0.000 .00000E+00 0.000E+00 0.000E+00 0.000E+00     1
BIGSUB   2        0 1990.37400E+03   289.400    61.823  1312.892   272.146    34.295     3.970     0.000     3.688     6.016     0.000     0.000     0.000     0.000     0.000     0.000     2.328     0.028     0.068 .00000E+00 0.000E+00 0.000E+00 0.000E+00     2
BIGSUB   3        0 1990.14590E+04   289.400    61.825  1311.723   274.937    34.940     3.294     0.000     3.066     3.795     0.000     0.000     0.000     0.000     0.000     0.000     0.729     0.010     0.079 .00000E+00 0.000E+00 0.000E+00 0.000E+00     3
BIGSUB   4        0 1990.91800E+03   289.400    61.825  1311.922   273.051    34.611     5.169     0.000     0.000     0.510     0.000     0.000     0.000     0.000     0.000     0.000     0.509     0.007     0.000 .00000E+00 0.000E+00 0.000E+00 0.000E+00     4
BIGSUB   5        0 1990.37770E+04   289.400    61.820  1313.779   275.216    34.901     3.235     0.000     2.835     3.310     0.000     0.000     0.000     0.000     0.000     0.000     0.475     0.006     0.116 .00000E+00 0.000E+00 0.000E+00 0.000E+00     5
BIGSUB   6        0 1990.18250E+04   289.400    61.815  1315.986   276.929    35.079     0.787     0.000     0.748     1.396     0.000     0.000     0.000     0.000     0.000     0.000     0.648     0.008     0.000 .00000E+00 0.000E+00 0.000E+00 0.000E+00     6
BIGSUB   7        0 1990.14660E+04   289.400    61.814  1316.192   249.543    32.134    29.577     0.000    16.697    16.839     0.000     0.000     0.000     0.000     0.000     0.000     0.142     0.004     1.368 .00000E+00 0.000E+00 0.000E+00 0.000E+00     7
BIGSUB   8        0 1990.34940E+04   289.400    61.804  1320.412   256.564    32.450    21.660     0.000     8.605     9.234     0.000     0.000     0.000     0.000     0.000     0.000     0.629     0.010     0.204 .00000E+00 0.000E+00 0.000E+00 0.000E+00     8
BIGSUB   9        0 1990.47420E+04   222.400    50.186  1239.538   226.620     2.024     0.000     0.000     0.000     0.275     0.000     0.000     0.000     0.000     0.000     0.000     0.274     0.005     0.000 .00000E+00 0.000E+00 0.000E+00 0.000E+00     9
BIGSUB  10        0 1990.13380E+04   222.400    50.176  1242.149   225.599     1.859     0.000     0.000     0.000     0.212     0.000     0.000     0.000     0.000     0.000     0.000     0.211     0.005     0.000 .00000E+00 0.000E+00 0.000E+00 0.000E+00    10
BIGSUB  11        0 1990.24060E+04   329.184    90.047  1078.785   262.875    92.052     0.000     0.000     0.013     0.262     0.000     0.000     0.000     0.000     0.000     0.000     0.249     0.004     0.000 .00000E+00 0.000E+00 0.000E+00 0.000E+00    11
BIGSUB  12        0 1990.19770E+04   292.300   105.788  1132.693   308.373     1.029    15.885     0.000     9.790     9.984     0.000     0.000     0.000     0.000     0.000     0.000     0.194     0.003     0.696 .00000E+00 0.000E+00 0.000E+00 0.000E+00    12
BIGSUB  13        0 1990.16410E+04   329.184    90.042  1080.497   261.729    92.704     0.000     0.000     0.027     0.199     0.000     0.000     0.000     0.000     0.000     0.000     0.172     0.003     0.000 .00000E+00 0.000E+00 0.000E+00 0.000E+00    13
BIGSUB  14        0 1990.52740E+04   292.300   105.763  1135.523   280.649     0.883    42.037     0.000    24.959    25.392     0.000     0.000     0.000     0.000     0.000     0.000     0.433     0.008     1.596 .00000E+00 0.000E+00 0.000E+00 0.000E+00    14
BIGSUB  15        0 1990.42200E+03   329.184    90.037  1082.085   262.333    92.310     0.000     0.000     0.014     0.171     0.000     0.000     0.000     0.000     0.000     0.000     0.157     0.003     0.000 .00000E+00 0.000E+00 0.000E+00 0.000E+00    15
BIGSUB  16        0 1990.13850E+04   329.184    90.032  1083.443   264.454    90.696     0.000     0.000     0.000     0.165     0.000     0.000     0.000     0.000     0.000     0.000     0.164     0.003     0.000 .00000E+00 0.000E+00 0.000E+00 0.000E+00    16
BIGSUB  17        0 1990.17180E+04   292.300   105.737  1138.596   226.545     0.729    93.033     0.000     0.000     0.165     0.000     0.000     0.000     0.000     0.000     0.000     0.165     0.003     0.000 .00000E+00 0.000E+00 0.000E+00 0.000E+00    17
BIGSUB  18        0 1990.26090E+04   292.300   105.745  1137.606   306.950     1.011    16.604     0.000    15.500    15.783     0.000     0.000     0.000     0.000     0.000     0.000     0.282     0.006     0.291 .00000E+00 0.000E+00 0.000E+00 0.000E+00    18
BIGSUB  19        0 1990.25380E+04   292.300   105.720  1140.582   278.194     0.857    43.741     0.000     0.000     0.588     0.000     0.000     0.000     0.000     0.000     0.000     0.588     0.010     0.000 .00000E+00 0.000E+00 0.000E+00 0.000E+00    19
BIGSUB  20        0 1990.19820E+04   292.300   105.712  1141.498   267.694     0.804    53.684     0.000     4.974     5.694     0.000     0.000     0.000     0.000     0.000     0.000     0.719     0.015     0.230 .00000E+00 0.000E+00 0.000E+00 0.000E+00    20
BIGSUB   1        0    1.12360E+04    19.100    26.211    17.848     8.493    55.957     0.000     0.000     0.000     0.031     0.000     0.000     0.000     0.000     0.000     0.000     0.031     0.000     0.000 .00000E+00 0.000E+00 0.000E+00 0.000E+00     1
BIGSUB   2        0    1.37400E+03    19.100    26.207    17.919     8.443    55.807     0.000     0.000     0.000     0.149     0.000     0.000     0.000     0.000     0.000     0.000     0.149     0.001     0.000 .00000E+00 0.000E+00 0.000E+00 0.000E+00     2
BIGSUB   3        0    1.14590E+04    19.100    26.211    17.846     8.130    56.877     0.000     0.000     0.000     0.044     0.000     0.000     0.000     0.000     0.000     0.000     0.043     0.000     0.000 .00000E+00 0.000E+00 0.000E+00 0.000E+00     3
BIGSUB   4        0    1.91800E+03    19.100    26.210    17.859     8.352    56.330     0.000     0.000     0.000     0.031     0.000     0.000     0.000     0.000     0.000     0.000     0.031     0.000     0.000 .00000E+00 0.000E+00 0.000E+00 0.000E+00     4
BIGSUB   5        0    1.37770E+04    19.100    26.204    17.975     8.284    56.696     0.000     0.000     0.000     0.027     0.000     0.000     0.000     0.000     0.000     0.000     0.027     0.000     0.000 .00000E+00 0.000E+00 0.000E+00 0.000E+00     5
BIGSUB   6        0    1.18250E+04    19.100    26.198    18.114     8.147    57.015     0.000     0.000     0.000     0.033     0.000     0.000     0.000     0.000     0.000     0.000     0.033     0.000     0.000 .00000E+00 0.000E+00 0.000E+00 0.000E+00     6
BIGSUB   7        0    1.14660E+04    19.100    26.197    18.127     9.139    53.086     0.000     0.000     0.002     0.011     0.000     0.000     0.000     0.000     0.000     0.000     0.009     0.000     0.000 .00000E+00 0.000E+00 0.000E+00 0.000E+00     7
BIGSUB   8        0    1.34940E+04    19.100    26.184    18.396     9.186    53.323     0.000     0.000     0.001     0.037     0.000     0.000     0.000     0.000     0.000     0.000     0.036     0.000     0.000 .00000E+00 0.000E+00 0.000E+00 0.000E+00     8
BIGSUB   9        0    1.47420E+04    34.700    18.450    19.588     3.637    17.872     0.000     0.000     0.000     0.008     0.000     0.000     0.000     0.000     0.000     0.000     0.008     0.000     0.000 .00000E+00 0.000E+00 0.000E+00 0.000E+00     9
BIGSUB  10        0    1.13380E+04    34.700    18.450    19.780     3.712    17.643     0.000     0.000     0.000     0.011     0.000     0.000     0.000     0.000     0.000     0.000     0.011     0.000     0.000 .00000E+00 0.000E+00 0.000E+00 0.000E+00    10
BIGSUB  11        0    1.24060E+04    29.257     2.915    19.324     7.753    87.214     0.000     0.000     0.000     0.024     0.000     0.000     0.000     0.000     0.000     0.000     0.024     0.000     0.000 .00000E+00 0.000E+00 0.000E+00 0.000E+00    11
BIGSUB  12        0    1.19770E+04    38.200     3.825    14.975     3.183     1.671     0.000     0.000     0.002     0.011     0.000     0.000     0.000     0.000     0.000     0.000     0.010     0.000     0.000 .00000E+00 0.000E+00 0.000E+00 0.000E+00    12
BIGSUB  13        0    1.16410E+04    29.257     2.915    19.471     7.451    88.168     0.000     0.000     0.000     0.014     0.000     0.000     0.000     0.000     0.000     0.000     0.014     0.000     0.000 .00000E+00 0.000E+00 0.000E+00 0.000E+00    13
BIGSUB  14        0    1.52740E+04    38.200     3.825    15.072     2.716     1.991     0.000     0.000     0.003     0.020     0.000     0.000     0.000     0.000     0.000     0.000     0.016     0.000     0.000 .00000E+00 0.000E+00 0.000E+00 0.000E+00    14
BIGSUB  15        0    1.42200E+03    29.257     2.915    19.608     7.622    87.603     0.000     0.000     0.000     0.015     0.000     0.000     0.000     0.000     0.000     0.000     0.014     0.000     0.000 .00000E+00 0.000E+00 0.000E+00 0.000E+00    15
BIGSUB  16        0    1.13850E+04    29.257     2.915    19.726     8.114    85.497     0.000     0.000     0.000     0.016     0.000     0.000     0.000     0.000     0.000     0.000     0.016     0.000     0.000 .00000E+00 0.000E+00 0.000E+00 0.000E+00    16
BIGSUB  17        0    1.17180E+04    38.200     3.825    15.271     2.742     1.812     0.000     0.000     0.000     0.010     0.000     0.000     0.000     0.000     0.000     0.000     0.010     0.000     0.000 .00000E+00 0.000E+00 0.000E+00 0.000E+00    17
BIGSUB  18        0    1.26090E+04    38.200     3.825    15.207     2.728     2.108     0.000     0.000     0.002     0.015     0.000     0.000     0.000     0.000     0.000     0.000     0.013     0.000     0.000 .00000E+00 0.000E+00 0.000E+00 0.000E+00    18
BIGSUB  19        0    1.25380E+04    38.200     3.825    15.401     2.681     1.999     0.000     0.000     0.000     0.008     0.000     0.000     0.000     0.000     0.000     0.000     0.008     0.000     0.000 .00000E+00 0.000E+00 0.000E+00 0.000E+00    19
BIGSUB  20        0    1.19820E+04    38.200     3.825    15.461     2.654     1.973     0.000     0.000     0.001     0.012     0.000     0.000     0.000     0.000     0.000     0.000     0.012     0.000     0.000 .00000E+00 0.000E+00 0.000E+00 0.000E+00    20
BIGSUB   1        0    2.12360E+04    41.900    22.300    31.255    18.988    78.803     0.000     0.000     0.000     0.028     0.000     0.000     0.000     0.000     0.000     0.000     0.028     0.000     0.000 .00000E+00 0.000E+00 0.000E+00 0.000E+00     1
BIGSUB   2        0    2.37400E+03    41.900    22.300    31.343    19.178    78.219     0.000     0.000     0.000     0.127     0.000     0.000     0.000     0.000     0.000     0.000     0.127     0.002     0.000 .00000E+00 0.000E+00 0.000E+00 0.000E+00     2
BIGSUB   3        0    2.14590E+04    41.900    22.300    31.253    18.640    80.051     0.000     0.000     0.000     0.038     0.000     0.000     0.000     0.000     0.000     0.000     0.038     0.000     0.000 .00000E+00 0.000E+00 0.000E+00 0.000E+00     3
BIGSUB   4        0    2.91800E+03    41.900    22.300    31.268    18.853    79.312     0.000     0.000     0.000     0.028     0.000     0.000     0.000     0.000     0.000     0.000     0.028     0.000     0.000 .00000E+00 0.000E+00 0.000E+00 0.000E+00     4
BIGSUB   5        0    2.37770E+04    41.900    22.300    31.412    19.119    79.422     0.000     0.000     0.000     0.024     0.000     0.000     0.000     0.000     0.000     0.000     0.023     0.000     0.000 .00000E+00 0.000E+00 0.000E+00 0.000E+00     5
BIGSUB   6        0    2.18250E+04    41.900    22.300    31.584    18.994    79.857     0.000     0.000     0.000     0.027     0.000     0.000     0.000     0.000     0.000     0.000     0.027     0.000     0.000 .00000E+00 0.000E+00 0.000E+00 0.000E+00     6
BIGSUB   7        0    2.14660E+04    41.900    22.300    31.601    18.353    76.621     0.000     0.000     0.001     0.009     0.000     0.000     0.000     0.000     0.000     0.000     0.008     0.000     0.000 .00000E+00 0.000E+00 0.000E+00 0.000E+00     7
BIGSUB   8        0    2.34940E+04    41.900    22.300    31.731    19.115    76.048     0.000     0.000     0.000     0.033     0.000     0.000     0.000     0.000     0.000     0.000     0.032     0.000     0.000 .00000E+00 0.000E+00 0.000E+00 0.000E+00     8
BIGSUB   9        0    2.47420E+04    36.500    31.497    24.351    14.913    65.039     0.000     0.000     0.000     0.011     0.000     0.000     0.000     0.000     0.000     0.000     0.011     0.000     0.000 .00000E+00 0.000E+00 0.000E+00 0.000E+00     9
BIGSUB  10        0    2.13380E+04    36.500    31.484    24.516    16.561    63.145     0.000     0.000     0.000     0.011     0.000     0.000     0.000     0.000     0.000     0.000     0.011     0.000     0.000 .00000E+00 0.000E+00 0.000E+00 0.000E+00    10
BIGSUB  11        0    2.24060E+04    46.448    51.743    23.316    14.948   145.057     0.000     0.000     0.000     0.019     0.000     0.000     0.000     0.000     0.000     0.000     0.019     0.000     0.000 .00000E+00 0.000E+00 0.000E+00 0.000E+00    11
BIGSUB  12        0    2.19770E+04    56.500    68.625    17.346     6.536    93.303     0.000     0.000     0.001     0.008     0.000     0.000     0.000     0.000     0.000     0.000     0.008     0.000     0.000 .00000E+00 0.000E+00 0.000E+00 0.000E+00    12
BIGSUB  13        0    2.16410E+04    46.448    51.740    23.443    15.356   145.602     0.000     0.000     0.000     0.011     0.000     0.000     0.000     0.000     0.000     0.000     0.011     0.000     0.000 .00000E+00 0.000E+00 0.000E+00 0.000E+00    13
BIGSUB  14        0    2.52740E+04    56.500    68.625    17.503     5.990    94.166     0.000     0.000     0.001     0.015     0.000     0.000     0.000     0.000     0.000     0.000     0.014     0.000     0.000 .00000E+00 0.000E+00 0.000E+00 0.000E+00    14
BIGSUB  15        0    2.42200E+03    46.448    51.736    23.561    15.290   145.104     0.000     0.000     0.000     0.011     0.000     0.000     0.000     0.000     0.000     0.000     0.011     0.000     0.000 .00000E+00 0.000E+00 0.000E+00 0.000E+00    15
BIGSUB  16        0    2.13850E+04    46.448    51.733    23.662    14.830   143.457     0.000     0.000     0.000     0.013     0.000     0.000     0.000     0.000     0.000     0.000     0.013     0.000     0.000 .00000E+00 0.000E+00 0.000E+00 0.000E+00    16
BIGSUB  17        0    2.17180E+04    56.500    68.625    17.664     6.315    93.729     0.000     0.000     0.000     0.008     0.000     0.000     0.000     0.000     0.000     0.000     0.008     0.000     0.000 .00000E+00 0.000E+00 0.000E+00 0.000E+00    17
BIGSUB  18        0    2.26090E+04    56.500    68.625    17.612     5.908    94.407     0.000     0.000     0.001     0.012     0.000     0.000     0.000     0.000     0.000     0.000     0.011     0.000     0.000 .00000E+00 0.000E+00 0.000E+00 0.000E+00    18
BIGSUB  19        0    2.25380E+04    56.500    68.625    17.769     6.054    94.129     0.000     0.000     0.000     0.013     0.000     0.000     0.000     0.000     0.000     0.000     0.013     0.000     0.000 .00000E+00 0.000E+00 0.000E+00 0.000E+00    19
BIGSUB  20        0    2.19820E+04    56.500    68.625    17.817     6.106    94.044     0.000     0.000     0.000     0.018     0.000     0.000     0.000     0.000     0.000     0.000     0.018     0.000     0.000 .00000E+00 0.000E+00 0.000E+00 0.000E+00    20
BIGSUB   1        0    3.12360E+04    87.200    10.510    58.568    39.457   117.051     9.247     0.000     0.000     0.103     0.000     0.000     0.000     0.000     0.000     0.000     0.103     0.001     0.000 .00000E+00 0.000E+00 0.000E+00 0.000E+00     1
BIGSUB   2        0    3.37400E+03    87.200    10.509    58.665    39.657   118.044     6.593     0.000     0.949     1.738     0.000     0.000     0.000     0.000     0.000     0.000     0.789     0.011     0.135 .00000E+00 0.000E+00 0.000E+00 0.000E+00     2
[...]
BIGSUB   5        0   11.37770E+04    30.200     5.400    38.771     9.483    22.133     0.000     0.000     0.000     0.015     0.000     0.000     0.000     0.000     0.000     0.000     0.015     0.000     0.000 .00000E+00 0.000E+00 0.000E+00 0.000E+00     5
BIGSUB   6        0   11.18250E+04    30.200     5.400    39.034     9.551    21.973     0.000     0.000     0.000     0.017     0.000     0.000     0.000     0.000     0.000     0.000     0.017     0.000     0.000 .00000E+00 0.000E+00 0.000E+00 0.000E+00     6
BIGSUB   7        0   11.14660E+04    30.200     5.400    39.059    10.031    21.961     0.000     0.000     0.000     0.005     0.000     0.000     0.000     0.000     0.000     0.000     0.004     0.000     0.000 .00000E+00 0.000E+00 0.000E+00 0.000E+00     7
BIGSUB   8        0   11.34940E+04    30.200     5.400    39.568    10.118    21.663     0.000     0.000     0.000     0.019     0.000     0.000     0.000     0.000     0.000     0.000     0.019     0.000     0.000 .00000E+00 0.000E+00 0.000E+00 0.000E+00     8
BIGSUB   9        0   11.47420E+04    24.100     5.400    41.873    13.927    20.609     0.000     0.000     0.000     0.022     0.000     0.000     0.000     0.000     0.000     0.000     0.022     0.000     0.000 .00000E+00 0.000E+00 0.000E+00 0.000E+00     9
BIGSUB  10        0   11.13380E+04    24.100     5.400    42.235    15.303    19.398     0.000     0.000     0.000     0.014     0.000     0.000     0.000     0.000     0.000     0.000     0.014     0.000     0.000 .00000E+00 0.000E+00 0.000E+00 0.000E+00    10
BIGSUB  11        0   11.24060E+04    39.900     0.700    37.806    14.130    31.711     0.000     0.000     0.000     0.012     0.000     0.000     0.000     0.000     0.000     0.000     0.012     0.000     0.000 .00000E+00 0.000E+00 0.000E+00 0.000E+00    11
BIGSUB  12        0   11.19770E+04    15.200     2.000    38.925    11.550     9.307     0.000     0.000     0.000     0.007     0.000     0.000     0.000     0.000     0.000     0.000     0.007     0.000     0.000 .00000E+00 0.000E+00 0.000E+00 0.000E+00    12
BIGSUB  13        0   11.16410E+04    39.900     0.700    38.057    16.285    29.607     0.000     0.000     0.000     0.008     0.000     0.000     0.000     0.000     0.000     0.000     0.008     0.000     0.000 .00000E+00 0.000E+00 0.000E+00 0.000E+00    13
BIGSUB  14        0   11.52740E+04    15.200     2.000    39.372    11.659     9.155     0.000     0.000     0.000     0.012     0.000     0.000     0.000     0.000     0.000     0.000     0.012     0.000     0.000 .00000E+00 0.000E+00 0.000E+00 0.000E+00    14
BIGSUB  15        0   11.42200E+03    39.900     0.700    38.292    15.452    30.428     0.000     0.000     0.000     0.007     0.000     0.000     0.000     0.000     0.000     0.000     0.007     0.000     0.000 .00000E+00 0.000E+00 0.000E+00 0.000E+00    15
BIGSUB  16        0   11.13850E+04    39.900     0.700    38.493    12.617    33.189     0.000     0.000     0.000     0.008     0.000     0.000     0.000     0.000     0.000     0.000     0.008     0.000     0.000 .00000E+00 0.000E+00 0.000E+00 0.000E+00    16
BIGSUB  17        0   11.17180E+04    15.200     2.000    39.831    11.081     9.714     0.000     0.000     0.000     0.006     0.000     0.000     0.000     0.000     0.000     0.000     0.006     0.000     0.000 .00000E+00 0.000E+00 0.000E+00 0.000E+00    17
BIGSUB  18        0   11.26090E+04    15.200     2.000    39.683    11.980     8.817     0.000     0.000     0.000     0.009     0.000     0.000     0.000     0.000     0.000     0.000     0.009     0.000     0.000 .00000E+00 0.000E+00 0.000E+00 0.000E+00    18
BIGSUB  19        0   11.25380E+04    15.200     2.000    40.131    11.785     8.995     0.000     0.000     0.000     0.015     0.000     0.000     0.000     0.000     0.000     0.000     0.015     0.000     0.000 .00000E+00 0.000E+00 0.000E+00 0.000E+00    19
BIGSUB  20        0   11.19820E+04    15.200     2.000    40.270    11.718     9.057     0.000     0.000     0.000     0.017     0.000     0.000     0.000     0.000     0.000     0.000     0.017     0.000     0.000 .00000E+00 0.000E+00 0.000E+00 0.000E+00    20
BIGSUB   1        0   12.12360E+04    45.100     0.000    26.069    17.086    50.132     0.000     0.000     0.000     0.059     0.000     0.000     0.000     0.000     0.000     0.000     0.059     0.000     0.000 .00000E+00 0.000E+00 0.000E+00 0.000E+00     1
BIGSUB   2        0   12.37400E+03    45.100     0.000    26.186    17.063    49.524     0.000     0.000     0.000     0.413     0.000     0.000     0.000     0.000     0.000     0.000     0.413     0.002     0.000 .00000E+00 0.000E+00 0.000E+00 0.000E+00     2
BIGSUB   3        0   12.14590E+04    45.100     0.000    26.066    17.001    50.319     0.000     0.000     0.000     0.066     0.000     0.000     0.000     0.000     0.000     0.000     0.066     0.000     0.000 .00000E+00 0.000E+00 0.000E+00 0.000E+00     3
BIGSUB   4        0   12.91800E+03    45.100     0.000    26.087    17.064    50.213     0.000     0.000     0.000     0.056     0.000     0.000     0.000     0.000     0.000     0.000     0.056     0.000     0.000 .00000E+00 0.000E+00 0.000E+00 0.000E+00     4
BIGSUB   5        0   12.37770E+04    45.100     0.000    26.277    17.064    50.080     0.000     0.000     0.000     0.043     0.000     0.000     0.000     0.000     0.000     0.000     0.043     0.000     0.000 .00000E+00 0.000E+00 0.000E+00 0.000E+00     5
BIGSUB   6        0   12.18250E+04    45.100     0.000    26.505    17.225    49.741     0.000     0.000     0.000     0.038     0.000     0.000     0.000     0.000     0.000     0.000     0.038     0.000     0.000 .00000E+00 0.000E+00 0.000E+00 0.000E+00     6
BIGSUB   7        0   12.14660E+04    45.100     0.000    26.526    17.682    49.355     0.000     0.000     0.000     0.006     0.000     0.000     0.000     0.000     0.000     0.000     0.006     0.000     0.000 .00000E+00 0.000E+00 0.000E+00 0.000E+00     7
BIGSUB   8        0   12.34940E+04    45.100     0.000    26.967    18.119    48.529     0.000     0.000     0.000     0.056     0.000     0.000     0.000     0.000     0.000     0.000     0.056     0.000     0.000 .00000E+00 0.000E+00 0.000E+00 0.000E+00     8
BIGSUB   9        0   12.47420E+04    12.900     0.000    27.949     9.612    23.882     0.000     0.000     0.000     0.023     0.000     0.000     0.000     0.000     0.000     0.000     0.023     0.000     0.000 .00000E+00 0.000E+00 0.000E+00 0.000E+00     9
BIGSUB  10        0   12.13380E+04    12.900     0.000    28.252    12.814    19.474     0.000     0.000     0.000     0.015     0.000     0.000     0.000     0.000     0.000     0.000     0.015     0.000     0.000 .00000E+00 0.000E+00 0.000E+00 0.000E+00    10
BIGSUB  11        0   12.24060E+04    40.500     0.354    25.023    17.477    54.694     0.000     0.000     0.000     0.018     0.000     0.000     0.000     0.000     0.000     0.000     0.018     0.000     0.000 .00000E+00 0.000E+00 0.000E+00 0.000E+00    11
BIGSUB  12        0   12.19770E+04    17.700     3.476    24.035     7.810    19.188     0.000     0.000     0.000     0.008     0.000     0.000     0.000     0.000     0.000     0.000     0.008     0.000     0.000 .00000E+00 0.000E+00 0.000E+00 0.000E+00    12
BIGSUB  13        0   12.16410E+04    40.500     0.354    25.231    16.940    53.144     0.000     0.000     0.000     0.010     0.000     0.000     0.000     0.000     0.000     0.000     0.010     0.000     0.000 .00000E+00 0.000E+00 0.000E+00 0.000E+00    13
BIGSUB  14        0   12.52740E+04    17.700     3.474    24.381     8.369    18.472     0.000     0.000     0.000     0.014     0.000     0.000     0.000     0.000     0.000     0.000     0.014     0.000     0.000 .00000E+00 0.000E+00 0.000E+00 0.000E+00    14
BIGSUB  15        0   12.42200E+03    40.500     0.354    25.426    17.273    53.632     0.000     0.000     0.000     0.011     0.000     0.000     0.000     0.000     0.000     0.000     0.010     0.000     0.000 .00000E+00 0.000E+00 0.000E+00 0.000E+00    15
BIGSUB  16        0   12.13850E+04    40.500     0.354    25.594    18.242    55.421     0.000     0.000     0.000     0.012     0.000     0.000     0.000     0.000     0.000     0.000     0.012     0.000     0.000 .00000E+00 0.000E+00 0.000E+00 0.000E+00    16
BIGSUB  17        0   12.17180E+04    17.700     3.472    24.736    10.041    17.369     0.000     0.000     0.000     0.006     0.000     0.000     0.000     0.000     0.000     0.000     0.006     0.000     0.000 .00000E+00 0.000E+00 0.000E+00 0.000E+00    17
BIGSUB  18        0   12.26090E+04    17.700     3.473    24.621     7.961    18.545     0.000     0.000     0.000     0.011     0.000     0.000     0.000     0.000     0.000     0.000     0.011     0.000     0.000 .00000E+00 0.000E+00 0.000E+00 0.000E+00    18
BIGSUB  19        0   12.25380E+04    17.700     3.471    24.969     8.501    18.173     0.000     0.000     0.000     0.022     0.000     0.000     0.000     0.000     0.000     0.000     0.022     0.000     0.000 .00000E+00 0.000E+00 0.000E+00 0.000E+00    19
BIGSUB  20        0   12.19820E+04    17.700     3.470    25.077     8.688    18.044     0.000     0.000     0.000     0.026     0.000     0.000     0.000     0.000     0.000     0.000     0.026     0.000     0.000 .00000E+00 0.000E+00 0.000E+00 0.000E+00    20
BIGSUB   1        0 2001.12360E+04   175.100     7.600  1387.187   184.803    50.132     0.000     0.000     0.000     0.317     0.000     0.000     0.000     0.000     0.000     0.000     0.317     0.003     0.000 .00000E+00 0.000E+00 0.000E+00 0.000E+00     1
BIGSUB   2        0 2001.37400E+03   175.100     7.600  1388.431   184.244    49.524     0.000     0.000     0.000     1.450     0.000     0.000     0.000     0.000     0.000     0.000     1.450     0.011     0.000 .00000E+00 0.000E+00 0.000E+00 0.000E+00     2
BIGSUB   3        0 2001.14590E+04   175.100     7.600  1387.160   185.879    50.319     0.000     0.000     0.000     0.457     0.000     0.000     0.000     0.000     0.000     0.000     0.457     0.004     0.000 .00000E+00 0.000E+00 0.000E+00 0.000E+00     3
BIGSUB   4        0 2001.91800E+03   175.100     7.600  1387.376   185.284    50.213     0.000     0.000     0.000     0.316     0.000     0.000     0.000     0.000     0.000     0.000     0.316     0.003     0.000 .00000E+00 0.000E+00 0.000E+00 0.000E+00     4
BIGSUB   5        0 2001.37770E+04   175.100     7.600  1389.395   186.221    50.080     0.000     0.000     0.000     0.291     0.000     0.000     0.000     0.000     0.000     0.000     0.290     0.002     0.000 .00000E+00 0.000E+00 0.000E+00 0.000E+00     5
BIGSUB   6        0 2001.18250E+04   175.100     7.600  1391.795   186.692    49.741     0.000     0.000     0.000     0.382     0.000     0.000     0.000     0.000     0.000     0.000     0.381     0.003     0.000 .00000E+00 0.000E+00 0.000E+00 0.000E+00     6
BIGSUB   7        0 2001.14660E+04   175.100     7.600  1392.018   181.350    49.355     0.000     0.000     0.000     0.072     0.000     0.000     0.000     0.000     0.000     0.000     0.072     0.001     0.000 .00000E+00 0.000E+00 0.000E+00 0.000E+00     7
BIGSUB   8        0 2001.34940E+04   175.100     7.600  1396.615   182.427    48.529     0.000     0.000     0.000     0.349     0.000     0.000     0.000     0.000     0.000     0.000     0.348     0.003     0.000 .00000E+00 0.000E+00 0.000E+00 0.000E+00     8
BIGSUB   9        0 2001.47420E+04   200.400    13.300  1264.808   219.703    23.882     0.000     0.000     0.000     0.244     0.000     0.000     0.000     0.000     0.000     0.000     0.244     0.002     0.000 .00000E+00 0.000E+00 0.000E+00 0.000E+00     9
BIGSUB  10        0 2001.13380E+04   200.400    13.300  1267.567   220.933    19.474     0.000     0.000     0.000     0.190     0.000     0.000     0.000     0.000     0.000     0.000     0.190     0.002     0.000 .00000E+00 0.000E+00 0.000E+00 0.000E+00    10
BIGSUB  11        0 2001.24060E+04   213.100    33.037  1159.323   222.263    54.694     0.000     0.000     0.001     0.184     0.000     0.000     0.000     0.000     0.000     0.000     0.182     0.002     0.000 .00000E+00 0.000E+00 0.000E+00 0.000E+00    11
BIGSUB  12        0 2001.19770E+04   180.000    62.616  1163.035   239.772    19.188     0.000     0.000     0.000     0.124     0.000     0.000     0.000     0.000     0.000     0.000     0.124     0.001     0.000 .00000E+00 0.000E+00 0.000E+00 0.000E+00    12
BIGSUB  13        0 2001.16410E+04   213.100    33.035  1161.186   222.764    53.144     0.000     0.000     0.008     0.134     0.000     0.000     0.000     0.000     0.000     0.000     0.126     0.001     0.000 .00000E+00 0.000E+00 0.000E+00 0.000E+00    13
BIGSUB  14        0 2001.52740E+04   180.000    62.585  1166.188   239.241    18.472     0.000     0.000     0.002     0.232     0.000     0.000     0.000     0.000     0.000     0.000     0.230     0.002     0.000 .00000E+00 0.000E+00 0.000E+00 0.000E+00    14
BIGSUB  15        0 2001.42200E+03   213.100    33.033  1162.915   222.733    53.632     0.000     0.000     0.004     0.119     0.000     0.000     0.000     0.000     0.000     0.000     0.115     0.001     0.000 .00000E+00 0.000E+00 0.000E+00 0.000E+00    15
BIGSUB  16        0 2001.13850E+04   213.100    33.032  1164.393   221.936    55.421     0.000     0.000     0.000     0.117     0.000     0.000     0.000     0.000     0.000     0.000     0.117     0.001     0.000 .00000E+00 0.000E+00 0.000E+00 0.000E+00    16
BIGSUB  17        0 2001.17180E+04   180.000    62.553  1169.387   232.561    17.369     5.994     0.000     0.000     0.093     0.000     0.000     0.000     0.000     0.000     0.000     0.093     0.001     0.000 .00000E+00 0.000E+00 0.000E+00 0.000E+00    17
BIGSUB  18        0 2001.26090E+04   180.000    62.563  1168.357   239.175    18.545     0.000     0.000     0.000     0.167     0.000     0.000     0.000     0.000     0.000     0.000     0.167     0.002     0.000 .00000E+00 0.000E+00 0.000E+00 0.000E+00    18
BIGSUB  19        0 2001.25380E+04   180.000    62.532  1171.455   238.844    18.173     0.000     0.000     0.000     0.299     0.000     0.000     0.000     0.000     0.000     0.000     0.299     0.003     0.000 .00000E+00 0.000E+00 0.000E+00 0.000E+00    19
BIGSUB  20        0 2001.19820E+04   180.000    62.522  1172.410   238.763    18.044     0.000     0.000     0.000     0.350     0.000     0.000     0.000     0.000     0.000     0.000     0.350     0.003     0.000 .00000E+00 0.000E+00 0.000E+00 0.000E+00    20
BIGSUB   1        0 12.0.12360E+04   273.842    46.598  1301.699   262.994    50.132     9.049     0.000     0.000     0.502     0.000     0.000     0.000     0.000     0.000     0.000     0.502     0.006     0.000 .00000E+00 0.000E+00 0.000E+00 0.000E+00     1
BIGSUB   2        0 12.0.37400E+03   273.842    46.595  1302.847   263.268    49.524     6.995     0.000     5.955     8.267     0.000     0.000     0.000     0.000     0.000     0.000     2.312     0.025     0.345 .00000E+00 0.000E+00 0.000E+00 0.000E+00     2
BIGSUB   3        0 12.0.14590E+04   273.842    46.598  1301.675   266.825    50.319     5.077     0.000     4.587     5.293     0.000     0.000     0.000     0.000     0.000     0.000     0.706     0.010     0.187 .00000E+00 0.000E+00 0.000E+00 0.000E+00     3
BIGSUB   4        0 12.0.91800E+03   273.842    46.597  1301.874   264.604    50.213     7.467     0.000     0.000     0.498     0.000     0.000     0.000     0.000     0.000     0.000     0.497     0.006     0.000 .00000E+00 0.000E+00 0.000E+00 0.000E+00     4
BIGSUB   5        0 12.0.37770E+04   273.842    46.592  1303.735   267.480    50.080     4.689     0.000     2.544     2.994     0.000     0.000     0.000     0.000     0.000     0.000     0.450     0.005     0.197 .00000E+00 0.000E+00 0.000E+00 0.000E+00     5
BIGSUB   6        0 12.0.18250E+04   273.842    46.586  1305.946   269.818    49.741     2.204     0.000     2.018     2.613     0.000     0.000     0.000     0.000     0.000     0.000     0.594     0.006     0.018 .00000E+00 0.000E+00 0.000E+00 0.000E+00     6
BIGSUB   7        0 12.0.14660E+04   273.842    46.586  1306.152   249.942    49.355    22.418     0.000     8.412     8.534     0.000     0.000     0.000     0.000     0.000     0.000     0.122     0.002     0.470 .00000E+00 0.000E+00 0.000E+00 0.000E+00     7
BIGSUB   8        0 12.0.34940E+04   273.842    46.574  1310.320   253.470    48.529    18.488     0.000     7.534     8.116     0.000     0.000     0.000     0.000     0.000     0.000     0.582     0.007     0.333 .00000E+00 0.000E+00 0.000E+00 0.000E+00     8
BIGSUB   9        0 12.0.47420E+04   283.017    46.042  1206.171   276.471    23.882     5.611     0.000     4.953     5.306     0.000     0.000     0.000     0.000     0.000     0.000     0.353     0.006     0.434 .00000E+00 0.000E+00 0.000E+00 0.000E+00     9
BIGSUB  10        0 12.0.13380E+04   283.017    46.034  1208.742   261.922    19.474    20.476     0.000     4.313     4.615     0.000     0.000     0.000     0.000     0.000     0.000     0.301     0.006     0.470 .00000E+00 0.000E+00 0.000E+00 0.000E+00    10
BIGSUB  11        0 12.0.24060E+04   400.261    99.356  1092.950   331.346    54.694    64.861     1.138     6.138     7.665     0.053     0.117     0.014     0.004     0.000     0.032     0.389     0.004     0.317 .00000E+00 0.000E+00 0.000E+00 0.000E+00    11
BIGSUB  12        0 12.0.19770E+04   347.875    81.081  1113.007   325.205    19.188    25.115     0.000     8.214     8.438     0.000     0.000     0.000     0.000     0.000     0.000     0.224     0.003     0.448 .00000E+00 0.000E+00 0.000E+00 0.000E+00    12
BIGSUB  13        0 12.0.16410E+04   400.261    99.347  1094.717   295.732    53.144   100.910     0.974    13.462    14.693     0.031     0.076     0.009     0.002     0.000     0.020     0.257     0.003     0.354 .00000E+00 0.000E+00 0.000E+00 0.000E+00    13
BIGSUB  14        0 12.0.52740E+04   347.875    81.045  1115.920   304.951    18.472    44.992     0.044    25.096    25.607     0.002     0.006     0.001     0.000     0.000     0.001     0.467     0.006     0.996 .00000E+00 0.000E+00 0.000E+00 0.000E+00    14
BIGSUB  15        0 12.0.42200E+03   400.261    99.339  1096.356   310.062    53.632    86.489     1.061    20.286    21.590     0.039     0.073     0.008     0.003     0.000     0.020     0.242     0.002     0.485 .00000E+00 0.000E+00 0.000E+00 0.000E+00    15
BIGSUB  16        0 12.0.13850E+04   400.261    99.332  1097.758   355.837    55.421    40.969     0.662     0.000     0.918     0.021     0.049     0.006     0.003     0.000     0.014     0.256     0.003     0.000 .00000E+00 0.000E+00 0.000E+00 0.000E+00    16
BIGSUB  17        0 12.0.17180E+04   347.875    81.028  1118.941   264.408    17.369    85.310     0.308     0.000     0.479     0.005     0.018     0.002     0.001     0.000     0.005     0.171     0.002     0.000 .00000E+00 0.000E+00 0.000E+00 0.000E+00    17
BIGSUB  18        0 12.0.26090E+04   347.875    81.033  1117.968   324.141    18.545    26.081     0.000    18.844    19.167     0.000     0.000     0.000     0.000     0.000     0.000     0.323     0.004     0.831 .00000E+00 0.000E+00 0.000E+00 0.000E+00    18
BIGSUB  19        0 12.0.25380E+04   347.875    81.016  1120.895   303.792    18.173    46.007     0.000     0.000     0.653     0.000     0.000     0.000     0.000     0.000     0.000     0.652     0.007     0.000 .00000E+00 0.000E+00 0.000E+00 0.000E+00    19
BIGSUB  20        0 12.0.19820E+04   347.875    81.011  1121.796   296.458    18.044    53.168     0.000     7.191     7.988     0.000     0.000     0.000     0.000     0.000     0.000     0.797     0.009     0.302 .00000E+00 0.000E+00 0.000E+00 0.000E+00    20
